<?xml version="1.0" encoding="UTF-8"?>

<!-- generated on 12/28/20 15:19:55 by Eclipse SUMO netedit Version 1.6.0
<configuration xmlns:xsi="http://www.w3.org/2001/XMLSchema-instance" xsi:noNamespaceSchemaLocation="http://sumo.dlr.de/xsd/netconvertConfiguration.xsd">

    <input>
        <sumo-net-file value="C:\hansm\idlab\graduation\simulation\intersection2.net.xml"/>
    </input>

    <output>
        <output-file value="C:\hansm\idlab\graduation\simulation\intersection.net.xml"/>
    </output>

    <processing>
        <geometry.min-radius.fix.railways value="false"/>
        <geometry.max-grade.fix value="false"/>
        <offset.disable-normalization value="true"/>
        <lefthand value="false"/>
    </processing>

    <junctions>
        <no-internal-links value="false"/>
        <no-turnarounds value="true"/>
        <junctions.corner-detail value="5"/>
        <junctions.limit-turn-speed value="5.5"/>
        <rectangular-lane-cut value="false"/>
    </junctions>

    <pedestrian>
        <walkingareas value="false"/>
    </pedestrian>

    <report>
        <aggregate-warnings value="5"/>
    </report>

</configuration>
-->

<net version="1.6" junctionCornerDetail="5" limitTurnSpeed="5.50" xmlns:xsi="http://www.w3.org/2001/XMLSchema-instance" xsi:noNamespaceSchemaLocation="http://sumo.dlr.de/xsd/net_file.xsd">

    <location netOffset="-437203.78,-4418435.12" convBoundary="5229.18,0.00,21973.65,13250.21" origBoundary="116.264254,39.914284,116.521519,40.034403" projParameter="+proj=utm +zone=50 +ellps=WGS84 +datum=WGS84 +units=m +no_defs"/>

    <type id="highway.bridleway" priority="1" numLanes="1" speed="2.78" allow="pedestrian" oneway="1" width="2.00"/>
    <type id="highway.bus_guideway" priority="1" numLanes="1" speed="27.78" allow="bus" oneway="1"/>
    <type id="highway.cycleway" priority="1" numLanes="1" speed="8.33" allow="bicycle" oneway="0" width="1.00"/>
    <type id="highway.footway" priority="1" numLanes="1" speed="2.78" allow="pedestrian" oneway="1" width="2.00"/>
    <type id="highway.ford" priority="1" numLanes="1" speed="2.78" allow="army" oneway="0"/>
    <type id="highway.living_street" priority="2" numLanes="1" speed="2.78" disallow="tram rail_urban rail rail_electric ship" oneway="0"/>
    <type id="highway.motorway" priority="14" numLanes="2" speed="39.44" allow="private emergency authority army vip passenger hov taxi bus coach delivery truck trailer motorcycle evehicle custom1 custom2" oneway="1"/>
    <type id="highway.motorway_link" priority="9" numLanes="1" speed="22.22" allow="private emergency authority army vip passenger hov taxi bus coach delivery truck trailer motorcycle evehicle custom1 custom2" oneway="1"/>
    <type id="highway.path" priority="1" numLanes="1" speed="2.78" allow="pedestrian bicycle" oneway="1" width="2.00"/>
    <type id="highway.pedestrian" priority="1" numLanes="1" speed="2.78" allow="pedestrian" oneway="1" width="2.00"/>
    <type id="highway.primary" priority="12" numLanes="2" speed="27.78" disallow="tram rail_urban rail rail_electric ship" oneway="0"/>
    <type id="highway.primary_link" priority="7" numLanes="1" speed="22.22" disallow="tram rail_urban rail rail_electric ship" oneway="0"/>
    <type id="highway.raceway" priority="15" numLanes="2" speed="83.33" allow="vip" oneway="0"/>
    <type id="highway.residential" priority="3" numLanes="1" speed="13.89" disallow="tram rail_urban rail rail_electric ship" oneway="0"/>
    <type id="highway.secondary" priority="11" numLanes="2" speed="27.78" disallow="tram rail_urban rail rail_electric ship" oneway="0"/>
    <type id="highway.secondary_link" priority="6" numLanes="1" speed="22.22" disallow="tram rail_urban rail rail_electric ship" oneway="0"/>
    <type id="highway.service" priority="1" numLanes="1" speed="5.56" allow="pedestrian delivery bicycle" oneway="0"/>
    <type id="highway.stairs" priority="1" numLanes="1" speed="1.39" allow="pedestrian" oneway="1" width="2.00"/>
    <type id="highway.step" priority="1" numLanes="1" speed="1.39" allow="pedestrian" oneway="1" width="2.00"/>
    <type id="highway.steps" priority="1" numLanes="1" speed="1.39" allow="pedestrian" oneway="1" width="2.00"/>
    <type id="highway.tertiary" priority="10" numLanes="1" speed="22.22" disallow="tram rail_urban rail rail_electric ship" oneway="0"/>
    <type id="highway.tertiary_link" priority="5" numLanes="1" speed="22.22" disallow="tram rail_urban rail rail_electric ship" oneway="0"/>
    <type id="highway.track" priority="1" numLanes="1" speed="5.56" disallow="tram rail_urban rail rail_electric ship" oneway="0"/>
    <type id="highway.trunk" priority="13" numLanes="2" speed="27.78" disallow="pedestrian bicycle tram rail_urban rail rail_electric ship" oneway="0"/>
    <type id="highway.trunk_link" priority="8" numLanes="1" speed="22.22" disallow="pedestrian bicycle tram rail_urban rail rail_electric ship" oneway="0"/>
    <type id="highway.unclassified" priority="4" numLanes="1" speed="13.89" disallow="tram rail_urban rail rail_electric ship" oneway="0"/>
    <type id="highway.unsurfaced" priority="1" numLanes="1" speed="8.33" disallow="tram rail_urban rail rail_electric ship" oneway="0"/>
    <type id="railway.highspeed" priority="21" numLanes="1" speed="69.44" allow="rail_electric" oneway="1"/>
    <type id="railway.light_rail" priority="19" numLanes="1" speed="27.78" allow="rail_urban" oneway="1"/>
    <type id="railway.preserved" priority="16" numLanes="1" speed="27.78" allow="rail" oneway="1"/>
    <type id="railway.rail" priority="20" numLanes="1" speed="44.44" allow="rail" oneway="1"/>
    <type id="railway.subway" priority="18" numLanes="1" speed="27.78" allow="rail_urban" oneway="1"/>
    <type id="railway.tram" priority="17" numLanes="1" speed="13.89" allow="tram" oneway="1"/>

    <edge id=":586470761_0" function="internal">
        <lane id=":586470761_0_0" index="0" allow="pedestrian" speed="6.57" length="4.73" width="3.00" shape="5306.97,8600.54 5306.64,8597.95 5305.65,8596.07"/>
    </edge>
    <edge id=":586470761_1" function="internal">
        <lane id=":586470761_1_0" index="0" allow="pedestrian" speed="13.89" length="43.43" width="2.00" shape="5306.97,8600.54 5305.62,8557.13"/>
    </edge>
    <edge id=":586470761_2" function="internal">
        <lane id=":586470761_2_0" index="0" allow="bicycle" speed="7.66" length="5.92" width="2.00" shape="5309.32,8600.54 5308.85,8596.89 5307.80,8594.91"/>
    </edge>
    <edge id=":586470761_3" function="internal">
        <lane id=":586470761_3_0" index="0" allow="bicycle" speed="13.89" length="43.44" width="2.00" shape="5309.32,8600.54 5307.62,8557.13"/>
    </edge>
    <edge id=":586470761_4" function="internal">
        <lane id=":586470761_4_0" index="0" allow="bicycle" speed="13.89" length="7.40" width="3.00" shape="5309.32,8600.54 5312.76,8593.99"/>
    </edge>
    <edge id=":586470761_5" function="internal">
        <lane id=":586470761_5_0" index="0" disallow="pedestrian" speed="8.69" length="2.80" width="3.00" shape="5311.57,8600.54 5311.21,8597.76"/>
    </edge>
    <edge id=":586470761_6" function="internal">
        <lane id=":586470761_6_0" index="0" disallow="pedestrian" speed="10.11" length="13.05" width="2.80" shape="5315.32,8600.54 5314.49,8594.18 5312.00,8589.56 5310.86,8588.77"/>
    </edge>
    <edge id=":586470761_7" function="internal">
        <lane id=":586470761_7_0" index="0" disallow="pedestrian" speed="13.89" length="43.65" shape="5318.32,8600.54 5317.05,8587.54 5314.27,8578.83 5311.49,8570.12 5310.22,8557.13"/>
        <lane id=":586470761_7_1" index="1" disallow="pedestrian" speed="13.89" length="43.65" width="3.00" shape="5318.32,8600.54 5315.32,8557.13"/>
        <lane id=":586470761_7_2" index="2" disallow="pedestrian" speed="13.89" length="43.65" width="3.00" shape="5318.32,8600.54 5318.32,8557.13"/>
        <lane id=":586470761_7_3" index="3" disallow="pedestrian" speed="13.89" length="43.65" width="3.00" shape="5321.32,8600.54 5321.32,8557.13"/>
        <lane id=":586470761_7_4" index="4" disallow="pedestrian" speed="13.89" length="43.65" width="3.00" shape="5321.32,8600.54 5324.32,8557.13"/>
    </edge>
    <edge id=":586470761_12" function="internal">
        <lane id=":586470761_12_0" index="0" disallow="pedestrian" speed="13.89" length="10.44" shape="5324.32,8600.54 5325.41,8590.15"/>
    </edge>
    <edge id=":586470761_13" function="internal">
        <lane id=":586470761_13_0" index="0" disallow="pedestrian" speed="12.93" length="10.63" shape="5324.32,8600.54 5325.72,8590.00"/>
    </edge>
    <edge id=":586470761_14" function="internal">
        <lane id=":586470761_14_0" index="0" disallow="pedestrian" speed="12.51" length="11.20" shape="5324.32,8600.54 5325.82,8590.66 5326.47,8589.64"/>
    </edge>
    <edge id=":586470761_57" function="internal">
        <lane id=":586470761_57_0" index="0" allow="pedestrian" speed="6.57" length="4.38" width="3.00" shape="5305.65,8596.07 5304.00,8594.90 5301.68,8594.44"/>
    </edge>
    <edge id=":586470761_58" function="internal">
        <lane id=":586470761_58_0" index="0" allow="bicycle" speed="7.66" length="7.00" width="2.00" shape="5307.80,8594.91 5307.44,8594.24 5305.08,8592.59 5301.78,8591.94"/>
    </edge>
    <edge id=":586470761_59" function="internal">
        <lane id=":586470761_59_0" index="0" allow="bicycle" speed="13.89" length="47.02" width="3.00" shape="5312.76,8593.99 5314.23,8591.19 5325.71,8579.32 5338.85,8569.18 5348.76,8565.01"/>
    </edge>
    <edge id=":586470761_60" function="internal">
        <lane id=":586470761_60_0" index="0" disallow="pedestrian" speed="8.69" length="13.84" width="3.00" shape="5311.21,8597.76 5310.96,8595.83 5309.15,8592.41 5306.12,8590.28 5301.88,8589.44"/>
    </edge>
    <edge id=":586470761_61" function="internal">
        <lane id=":586470761_61_0" index="0" disallow="pedestrian" speed="10.11" length="9.58" width="2.80" shape="5310.86,8588.77 5307.85,8586.68 5302.04,8585.54"/>
    </edge>
    <edge id=":586470761_62" function="internal">
        <lane id=":586470761_62_0" index="0" disallow="pedestrian" speed="13.89" length="35.81" shape="5325.41,8590.15 5325.84,8586.02 5330.40,8575.78 5338.00,8569.81 5348.64,8568.11"/>
    </edge>
    <edge id=":586470761_63" function="internal">
        <lane id=":586470761_63_0" index="0" disallow="pedestrian" speed="12.93" length="29.27" shape="5325.72,8590.00 5325.82,8589.26 5330.33,8581.33 5337.85,8576.74 5348.37,8575.51"/>
    </edge>
    <edge id=":586470761_64" function="internal">
        <lane id=":586470761_64_0" index="0" disallow="pedestrian" speed="12.51" length="26.05" shape="5326.47,8589.64 5330.30,8583.73 5337.79,8579.74 5348.26,8578.70"/>
    </edge>
    <edge id=":586470761_15" function="internal">
        <lane id=":586470761_15_0" index="0" allow="pedestrian" speed="4.53" length="4.34" width="2.70" shape="5347.56,8598.09 5346.29,8598.20 5345.39,8598.65 5344.85,8599.43 5344.67,8600.54"/>
    </edge>
    <edge id=":586470761_16" function="internal">
        <lane id=":586470761_16_0" index="0" allow="pedestrian" speed="13.89" length="46.02" width="3.00" shape="5347.56,8598.09 5301.68,8594.44"/>
    </edge>
    <edge id=":586470761_17" function="internal">
        <lane id=":586470761_17_0" index="0" allow="bicycle" speed="5.94" length="2.55" width="2.00" shape="5347.63,8596.09 5345.31,8596.30 5345.11,8596.39"/>
    </edge>
    <edge id=":586470761_18" function="internal">
        <lane id=":586470761_18_0" index="0" allow="bicycle" speed="13.89" length="46.03" width="2.00" shape="5347.63,8596.09 5301.78,8591.94"/>
    </edge>
    <edge id=":586470761_19" function="internal">
        <lane id=":586470761_19_0" index="0" allow="bicycle" speed="13.89" length="45.81" width="2.00" shape="5347.63,8596.09 5337.63,8591.12 5324.29,8579.82 5312.78,8567.09"/>
    </edge>
    <edge id=":586470761_20" function="internal">
        <lane id=":586470761_20_0" index="0" disallow="pedestrian" speed="7.26" length="2.65" width="2.50" shape="5347.72,8593.59 5345.08,8593.85"/>
    </edge>
    <edge id=":586470761_21" function="internal">
        <lane id=":586470761_21_0" index="0" disallow="pedestrian" speed="8.12" length="3.41" width="3.00" shape="5347.72,8593.59 5344.32,8593.78"/>
    </edge>
    <edge id=":586470761_22" function="internal">
        <lane id=":586470761_22_0" index="0" disallow="pedestrian" speed="13.89" length="46.34" width="2.80" shape="5347.86,8589.75 5334.22,8588.43 5325.00,8586.28 5315.79,8584.11 5302.15,8582.75"/>
        <lane id=":586470761_22_1" index="1" disallow="pedestrian" speed="13.89" length="46.34" width="2.80" shape="5347.96,8587.05 5334.32,8585.71 5325.11,8583.53 5315.90,8581.33 5302.26,8579.95"/>
    </edge>
    <edge id=":586470761_24" function="internal">
        <lane id=":586470761_24_0" index="0" disallow="pedestrian" speed="13.89" length="31.70" shape="5348.05,8584.35 5338.39,8581.00 5325.81,8573.39 5320.56,8569.10"/>
    </edge>
    <edge id=":586470761_25" function="internal">
        <lane id=":586470761_25_0" index="0" disallow="pedestrian" speed="13.89" length="23.85" width="3.00" shape="5348.05,8584.35 5335.05,8582.24 5325.75,8577.00"/>
    </edge>
    <edge id=":586470761_26" function="internal">
        <lane id=":586470761_26_0" index="0" disallow="pedestrian" speed="13.46" length="13.30" width="3.00" shape="5348.15,8581.65 5336.41,8579.75 5335.18,8579.06"/>
    </edge>
    <edge id=":586470761_27" function="internal">
        <lane id=":586470761_27_0" index="0" disallow="pedestrian" speed="13.07" length="11.67" width="3.00" shape="5348.15,8581.65 5337.73,8579.79 5336.81,8579.22"/>
    </edge>
    <edge id=":586470761_65" function="internal">
        <lane id=":586470761_65_0" index="0" allow="bicycle" speed="5.94" length="5.40" width="2.00" shape="5345.11,8596.39 5343.65,8597.11 5342.65,8598.52 5342.32,8600.54"/>
    </edge>
    <edge id=":586470761_66" function="internal">
        <lane id=":586470761_66_0" index="0" allow="bicycle" speed="13.89" length="11.23" width="2.00" shape="5312.78,8567.09 5312.62,8566.92 5307.62,8557.13"/>
    </edge>
    <edge id=":586470761_67" function="internal">
        <lane id=":586470761_67_0" index="0" disallow="pedestrian" speed="7.26" length="9.23" width="2.50" shape="5345.08,8593.85 5344.37,8593.92 5341.98,8595.19 5340.55,8597.39 5340.07,8600.54"/>
    </edge>
    <edge id=":586470761_68" function="internal">
        <lane id=":586470761_68_0" index="0" disallow="pedestrian" speed="8.12" length="11.72" width="3.00" shape="5344.32,8593.78 5342.73,8593.87 5339.17,8595.12 5337.03,8597.34 5336.32,8600.54"/>
    </edge>
    <edge id=":586470761_69" function="internal">
        <lane id=":586470761_69_0" index="0" disallow="pedestrian" speed="13.89" length="16.03" shape="5320.56,8569.10 5314.88,8564.45 5310.22,8557.13"/>
    </edge>
    <edge id=":586470761_70" function="internal">
        <lane id=":586470761_70_0" index="0" disallow="pedestrian" speed="13.89" length="21.71" width="3.00" shape="5325.75,8577.00 5320.18,8568.63 5318.32,8557.13"/>
    </edge>
    <edge id=":586470761_71" function="internal">
        <lane id=":586470761_71_0" index="0" disallow="pedestrian" speed="13.46" length="27.78" width="3.00" shape="5335.18,8579.06 5328.03,8575.03 5323.00,8567.49 5321.32,8557.13"/>
    </edge>
    <edge id=":586470761_72" function="internal">
        <lane id=":586470761_72_0" index="0" disallow="pedestrian" speed="13.07" length="27.02" width="3.00" shape="5336.81,8579.22 5330.28,8575.09 5325.81,8567.53 5324.32,8557.13"/>
    </edge>
    <edge id=":586470761_28" function="internal">
        <lane id=":586470761_28_0" index="0" allow="pedestrian" speed="5.64" length="6.72" width="2.00" shape="5346.02,8557.13 5346.20,8559.44 5346.73,8561.12 5347.61,8562.14 5348.85,8562.51"/>
    </edge>
    <edge id=":586470761_29" function="internal">
        <lane id=":586470761_29_0" index="0" allow="pedestrian" speed="13.89" length="43.43" width="2.70" shape="5346.02,8557.13 5344.67,8600.54"/>
    </edge>
    <edge id=":586470761_30" function="internal">
        <lane id=":586470761_30_0" index="0" allow="bicycle" speed="6.86" length="4.07" width="3.00" shape="5344.02,8557.13 5344.32,8560.51 5344.54,8561.14"/>
    </edge>
    <edge id=":586470761_31" function="internal">
        <lane id=":586470761_31_0" index="0" allow="bicycle" speed="13.89" length="43.44" width="2.00" shape="5344.02,8557.13 5342.32,8600.54"/>
    </edge>
    <edge id=":586470761_32" function="internal">
        <lane id=":586470761_32_0" index="0" allow="bicycle" speed="13.89" length="5.50" width="2.00" shape="5344.02,8557.13 5341.27,8561.88"/>
    </edge>
    <edge id=":586470761_33" function="internal">
        <lane id=":586470761_33_0" index="0" disallow="pedestrian" speed="8.25" length="4.45" shape="5341.42,8557.13 5341.84,8561.56"/>
    </edge>
    <edge id=":586470761_34" function="internal">
        <lane id=":586470761_34_0" index="0" disallow="pedestrian" speed="9.15" length="5.62" shape="5341.42,8557.13 5341.80,8562.74"/>
    </edge>
    <edge id=":586470761_35" function="internal">
        <lane id=":586470761_35_0" index="0" disallow="pedestrian" speed="13.89" length="43.60" width="3.00" shape="5336.32,8557.13 5336.32,8600.54"/>
        <lane id=":586470761_35_1" index="1" disallow="pedestrian" speed="13.89" length="43.60" width="3.00" shape="5336.32,8557.13 5333.32,8600.54"/>
        <lane id=":586470761_35_2" index="2" disallow="pedestrian" speed="13.89" length="43.60" width="3.00" shape="5333.32,8557.13 5330.32,8600.54"/>
        <lane id=":586470761_35_3" index="3" disallow="pedestrian" speed="13.89" length="43.60" width="3.00" shape="5333.32,8557.13 5332.38,8570.07 5330.32,8578.83 5328.26,8587.59 5327.32,8600.54"/>
    </edge>
    <edge id=":586470761_39" function="internal">
        <lane id=":586470761_39_0" index="0" disallow="pedestrian" speed="13.89" length="7.32" width="3.00" shape="5330.32,8557.13 5329.43,8564.39"/>
    </edge>
    <edge id=":586470761_40" function="internal">
        <lane id=":586470761_40_0" index="0" disallow="pedestrian" speed="13.52" length="7.48" width="2.80" shape="5330.32,8557.13 5329.20,8564.52"/>
    </edge>
    <edge id=":586470761_41" function="internal">
        <lane id=":586470761_41_0" index="0" disallow="pedestrian" speed="12.77" length="9.21" width="2.80" shape="5327.32,8557.13 5325.94,8566.23"/>
    </edge>
    <edge id=":586470761_73" function="internal">
        <lane id=":586470761_73_0" index="0" allow="bicycle" speed="6.86" length="6.18" width="3.00" shape="5344.54,8561.14 5345.20,8562.95 5346.68,8564.45 5348.76,8565.01"/>
    </edge>
    <edge id=":586470761_74" function="internal">
        <lane id=":586470761_74_0" index="0" allow="bicycle" speed="13.89" length="50.55" width="2.00" shape="5341.27,8561.88 5338.67,8566.36 5326.23,8578.00 5312.13,8587.90 5301.78,8591.94"/>
    </edge>
    <edge id=":586470761_75" function="internal">
        <lane id=":586470761_75_0" index="0" disallow="pedestrian" speed="8.25" length="10.27" shape="5341.84,8561.56 5341.87,8561.83 5343.23,8565.23 5345.48,8567.33 5348.64,8568.11"/>
    </edge>
    <edge id=":586470761_76" function="internal">
        <lane id=":586470761_76_0" index="0" disallow="pedestrian" speed="9.15" length="12.73" shape="5341.80,8562.74 5341.86,8563.67 5343.19,8568.38 5345.40,8571.26 5348.49,8572.31"/>
    </edge>
    <edge id=":586470761_77" function="internal">
        <lane id=":586470761_77_0" index="0" disallow="pedestrian" speed="13.89" length="42.11" width="3.00" shape="5329.43,8564.39 5328.54,8571.69 5323.21,8581.93 5314.33,8587.85 5301.88,8589.44"/>
    </edge>
    <edge id=":586470761_78" function="internal">
        <lane id=":586470761_78_0" index="0" disallow="pedestrian" speed="13.52" length="36.34" width="2.80" shape="5329.20,8564.52 5328.56,8568.76 5323.28,8576.90 5314.48,8581.57 5302.15,8582.75"/>
    </edge>
    <edge id=":586470761_79" function="internal">
        <lane id=":586470761_79_0" index="0" disallow="pedestrian" speed="12.77" length="29.79" width="2.80" shape="5325.94,8566.23 5325.75,8567.49 5321.06,8574.74 5313.23,8578.90 5302.26,8579.95"/>
    </edge>
    <edge id=":586470761_42" function="internal">
        <lane id=":586470761_42_0" index="0" allow="pedestrian" speed="4.73" length="4.47" width="2.00" shape="5303.06,8560.06 5304.18,8559.92 5304.98,8559.38 5305.46,8558.45 5305.62,8557.13"/>
    </edge>
    <edge id=":586470761_43" function="internal">
        <lane id=":586470761_43_0" index="0" allow="pedestrian" speed="13.89" length="45.85" width="2.00" shape="5303.06,8560.06 5348.85,8562.51"/>
    </edge>
    <edge id=":586470761_44" function="internal">
        <lane id=":586470761_44_0" index="0" allow="bicycle" speed="6.02" length="3.82" width="2.00" shape="5302.96,8562.56 5305.00,8562.29 5306.46,8561.30"/>
    </edge>
    <edge id=":586470761_45" function="internal">
        <lane id=":586470761_45_0" index="0" allow="bicycle" speed="13.89" length="45.86" width="3.00" shape="5302.96,8562.56 5348.76,8565.01"/>
    </edge>
    <edge id=":586470761_46" function="internal">
        <lane id=":586470761_46_0" index="0" allow="bicycle" speed="13.89" length="45.94" width="2.00" shape="5302.96,8562.56 5312.86,8567.40 5325.97,8578.35 5337.42,8590.91 5337.80,8591.66"/>
    </edge>
    <edge id=":586470761_47" function="internal">
        <lane id=":586470761_47_0" index="0" disallow="pedestrian" speed="7.45" length="8.13" shape="5302.86,8565.16 5306.08,8564.77 5308.38,8563.30 5309.41,8561.40"/>
    </edge>
    <edge id=":586470761_48" function="internal">
        <lane id=":586470761_48_0" index="0" disallow="pedestrian" speed="8.56" length="11.99" width="3.00" shape="5302.86,8565.16 5308.31,8564.84 5312.20,8563.40 5313.80,8561.64"/>
    </edge>
    <edge id=":586470761_49" function="internal">
        <lane id=":586470761_49_0" index="0" disallow="pedestrian" speed="13.89" length="46.02" shape="5302.70,8569.11 5348.64,8568.11"/>
        <lane id=":586470761_49_1" index="1" disallow="pedestrian" speed="13.89" length="46.02" shape="5302.70,8569.11 5348.49,8572.31"/>
        <lane id=":586470761_49_2" index="2" disallow="pedestrian" speed="13.89" length="46.02" shape="5302.59,8571.80 5348.37,8575.51"/>
        <lane id=":586470761_49_3" index="3" disallow="pedestrian" speed="13.89" length="46.02" shape="5302.59,8571.80 5316.22,8573.15 5325.42,8575.29 5334.63,8577.40 5348.26,8578.70"/>
    </edge>
    <edge id=":586470761_53" function="internal">
        <lane id=":586470761_53_0" index="0" disallow="pedestrian" speed="13.89" length="32.17" width="2.50" shape="5302.48,8574.50 5312.10,8577.71 5324.61,8584.97 5330.56,8589.65"/>
    </edge>
    <edge id=":586470761_54" function="internal">
        <lane id=":586470761_54_0" index="0" disallow="pedestrian" speed="13.59" length="25.39" width="3.00" shape="5302.48,8574.50 5311.05,8577.57 5321.23,8584.58 5324.02,8587.35"/>
    </edge>
    <edge id=":586470761_55" function="internal">
        <lane id=":586470761_55_0" index="0" disallow="pedestrian" speed="13.47" length="14.40" width="3.00" shape="5302.37,8577.20 5314.60,8579.08 5316.40,8580.01"/>
    </edge>
    <edge id=":586470761_56" function="internal">
        <lane id=":586470761_56_0" index="0" disallow="pedestrian" speed="13.07" length="12.58" width="3.00" shape="5302.37,8577.20 5313.29,8579.03 5314.60,8579.79"/>
    </edge>
    <edge id=":586470761_80" function="internal">
        <lane id=":586470761_80_0" index="0" allow="bicycle" speed="6.02" length="4.40" width="2.00" shape="5306.46,8561.30 5307.33,8559.57 5307.62,8557.13"/>
    </edge>
    <edge id=":586470761_81" function="internal">
        <lane id=":586470761_81_0" index="0" allow="bicycle" speed="13.89" length="9.96" width="2.00" shape="5337.80,8591.66 5342.32,8600.54"/>
    </edge>
    <edge id=":586470761_82" function="internal">
        <lane id=":586470761_82_0" index="0" disallow="pedestrian" speed="7.45" length="4.40" shape="5309.41,8561.40 5309.76,8560.75 5310.22,8557.13"/>
    </edge>
    <edge id=":586470761_83" function="internal">
        <lane id=":586470761_83_0" index="0" disallow="pedestrian" speed="8.56" length="4.88" width="3.00" shape="5313.80,8561.64 5314.54,8560.83 5315.32,8557.13"/>
    </edge>
    <edge id=":586470761_84" function="internal">
        <lane id=":586470761_84_0" index="0" disallow="pedestrian" speed="13.89" length="14.64" width="2.50" shape="5330.56,8589.65 5335.45,8593.50 5340.07,8600.54"/>
    </edge>
    <edge id=":586470761_85" function="internal">
        <lane id=":586470761_85_0" index="0" disallow="pedestrian" speed="13.59" length="16.37" width="3.00" shape="5324.02,8587.35 5329.75,8593.06 5333.32,8600.54"/>
    </edge>
    <edge id=":586470761_86" function="internal">
        <lane id=":586470761_86_0" index="0" disallow="pedestrian" speed="13.47" length="26.61" width="3.00" shape="5316.40,8580.01 5323.33,8583.59 5328.57,8590.75 5330.32,8600.54"/>
    </edge>
    <edge id=":586470761_87" function="internal">
        <lane id=":586470761_87_0" index="0" disallow="pedestrian" speed="13.07" length="26.00" width="3.00" shape="5314.60,8579.79 5321.08,8583.53 5325.76,8590.70 5327.32,8600.54"/>
    </edge>
    <edge id=":586470761_c0" function="crossing" crossingEdges="gneE513 gneE514.151">
        <lane id=":586470761_c0_0" index="0" allow="pedestrian" speed="1.00" length="35.00" width="4.00" shape="5343.32,8598.54 5308.32,8598.54"/>
    </edge>
    <edge id=":586470761_c1" function="crossing" crossingEdges="gneE461 gneE462.171.50">
        <lane id=":586470761_c1_0" index="0" allow="pedestrian" speed="1.00" length="33.60" width="4.00" shape="5346.81,8563.44 5345.59,8597.02"/>
    </edge>
    <edge id=":586470761_c2" function="crossing" crossingEdges="gneE419 gneE420.493">
        <lane id=":586470761_c2_0" index="0" allow="pedestrian" speed="1.00" length="38.40" width="4.00" shape="5306.62,8559.13 5345.02,8559.13"/>
    </edge>
    <edge id=":586470761_c3" function="crossing" crossingEdges="gneE470 gneE469.241">
        <lane id=":586470761_c3_0" index="0" allow="pedestrian" speed="1.00" length="31.40" width="4.00" shape="5303.74,8593.02 5305.00,8561.64"/>
    </edge>
    <edge id=":586470761_w0" function="walkingarea">
        <lane id=":586470761_w0_0" index="0" allow="pedestrian" speed="1.00" length="6.02" width="4.00" shape="5301.74,8592.94 5301.62,8595.94 5305.62,8600.54 5308.32,8600.54 5308.14,8598.29 5307.59,8596.43 5306.68,8594.97 5305.40,8593.90 5303.75,8593.22"/>
    </edge>
    <edge id=":586470761_w1" function="walkingarea">
        <lane id=":586470761_w1_0" index="0" allow="pedestrian" speed="1.00" length="3.18" width="4.00" shape="5343.32,8600.54 5346.02,8600.54 5347.52,8599.09 5347.59,8597.09 5346.29,8597.14 5345.22,8597.40 5344.39,8597.87 5343.79,8598.55 5343.44,8599.44"/>
    </edge>
    <edge id=":586470761_w2" function="walkingarea">
        <lane id=":586470761_w2_0" index="0" allow="pedestrian" speed="1.00" length="4.45" width="4.00" shape="5348.81,8563.51 5348.88,8561.51 5347.02,8557.13 5345.02,8557.13 5345.13,8559.04 5345.44,8560.61 5345.97,8561.85 5346.70,8562.74 5347.65,8563.30"/>
    </edge>
    <edge id=":586470761_w3" function="walkingarea">
        <lane id=":586470761_w3_0" index="0" allow="pedestrian" speed="1.00" length="3.31" width="4.00" shape="5306.62,8557.13 5304.62,8557.13 5303.12,8558.56 5303.00,8561.56 5304.11,8561.48 5305.01,8561.13 5305.72,8560.53 5306.22,8559.65 5306.52,8558.52"/>
    </edge>
    <edge id=":gneJ575_w0" function="walkingarea">
        <lane id=":gneJ575_w0_0" index="0" allow="pedestrian" speed="1.00" length="34.40" width="3.00" shape="5229.86,8558.63 5229.98,8555.64 5228.48,8593.01 5228.60,8590.01"/>
    </edge>
    <edge id=":gneJ588_w0" function="walkingarea">
        <lane id=":gneJ588_w0_0" index="0" allow="pedestrian" speed="1.00" length="37.70" width="2.70" shape="5308.32,8682.88 5305.62,8682.88 5346.02,8682.88 5343.32,8682.88"/>
    </edge>
    <edge id=":gneJ642_w0" function="walkingarea">
        <lane id=":gneJ642_w0_0" index="0" allow="pedestrian" speed="1.00" length="40.40" width="2.00" shape="5345.02,8491.70 5347.02,8491.70 5304.62,8491.70 5306.62,8491.70"/>
    </edge>
    <edge id=":gneJ649_w0" function="walkingarea">
        <lane id=":gneJ649_w0_0" index="0" allow="pedestrian" speed="1.00" length="35.60" width="2.00" shape="5444.84,8600.62 5444.77,8602.62 5446.13,8565.04 5446.06,8567.04"/>
    </edge>

    <edge id="gneE419" from="586470761" to="gneJ642" priority="-1">
        <lane id="gneE419_0" index="0" allow="pedestrian" speed="13.89" length="65.43" width="2.00" shape="5305.62,8557.13 5305.62,8491.70"/>
        <lane id="gneE419_1" index="1" allow="bicycle" speed="13.89" length="65.43" width="2.00" shape="5307.62,8557.13 5307.62,8491.70"/>
        <lane id="gneE419_2" index="2" disallow="pedestrian" speed="13.89" length="65.43" shape="5310.22,8557.13 5310.22,8491.70"/>
        <lane id="gneE419_3" index="3" disallow="all" speed="13.89" length="65.43" width="2.00" shape="5312.82,8557.13 5312.82,8491.70"/>
        <lane id="gneE419_4" index="4" disallow="pedestrian" speed="13.89" length="65.43" width="3.00" shape="5315.32,8557.13 5315.32,8491.70"/>
        <lane id="gneE419_5" index="5" disallow="pedestrian" speed="13.89" length="65.43" width="3.00" shape="5318.32,8557.13 5318.32,8491.70"/>
        <lane id="gneE419_6" index="6" disallow="pedestrian" speed="13.89" length="65.43" width="3.00" shape="5321.32,8557.13 5321.32,8491.70"/>
        <lane id="gneE419_7" index="7" disallow="pedestrian" speed="13.89" length="65.43" width="3.00" shape="5324.32,8557.13 5324.32,8491.70"/>
    </edge>
    <edge id="gneE420.493" from="gneJ642" to="586470761" priority="-1">
        <lane id="gneE420.493_0" index="0" allow="pedestrian" speed="13.89" length="65.43" width="2.00" shape="5346.02,8491.70 5346.02,8557.13"/>