<?xml version="1.0" encoding="UTF-8"?>

<!-- generated on 12/28/20 15:19:11 by Eclipse SUMO netedit Version 1.6.0
<configuration xmlns:xsi="http://www.w3.org/2001/XMLSchema-instance" xsi:noNamespaceSchemaLocation="http://sumo.dlr.de/xsd/netconvertConfiguration.xsd">

    <input>
        <sumo-net-file value="C:\hansm\idlab\graduation\simulation\southeast.net.xml"/>
    </input>

    <output>
        <output-file value="C:\hansm\idlab\graduation\simulation\ramp.net.xml"/>
    </output>

    <processing>
        <geometry.min-radius.fix.railways value="false"/>
        <geometry.max-grade.fix value="false"/>
        <offset.disable-normalization value="true"/>
        <lefthand value="false"/>
    </processing>

    <junctions>
        <no-internal-links value="false"/>
        <no-turnarounds value="true"/>
        <junctions.corner-detail value="5"/>
        <junctions.limit-turn-speed value="5.5"/>
        <rectangular-lane-cut value="false"/>
    </junctions>

    <pedestrian>
        <walkingareas value="false"/>
    </pedestrian>

    <report>
        <aggregate-warnings value="5"/>
    </report>

</configuration>
-->

<net version="1.6" junctionCornerDetail="5" limitTurnSpeed="5.50" xmlns:xsi="http://www.w3.org/2001/XMLSchema-instance" xsi:noNamespaceSchemaLocation="http://sumo.dlr.de/xsd/net_file.xsd">

    <location netOffset="-437203.78,-4418435.12" convBoundary="4160.91,0.00,21973.65,13250.21" origBoundary="116.264254,39.914284,116.521519,40.034403" projParameter="+proj=utm +zone=50 +ellps=WGS84 +datum=WGS84 +units=m +no_defs"/>

    <type id="highway.bridleway" priority="1" numLanes="1" speed="2.78" allow="pedestrian" oneway="1" width="2.00"/>
    <type id="highway.bus_guideway" priority="1" numLanes="1" speed="27.78" allow="bus" oneway="1"/>
    <type id="highway.cycleway" priority="1" numLanes="1" speed="8.33" allow="bicycle" oneway="0" width="1.00"/>
    <type id="highway.footway" priority="1" numLanes="1" speed="2.78" allow="pedestrian" oneway="1" width="2.00"/>
    <type id="highway.ford" priority="1" numLanes="1" speed="2.78" allow="army" oneway="0"/>
    <type id="highway.living_street" priority="2" numLanes="1" speed="2.78" disallow="tram rail_urban rail rail_electric ship" oneway="0"/>
    <type id="highway.motorway" priority="14" numLanes="2" speed="39.44" allow="private emergency authority army vip passenger hov taxi bus coach delivery truck trailer motorcycle evehicle custom1 custom2" oneway="1"/>
    <type id="highway.motorway_link" priority="9" numLanes="1" speed="22.22" allow="private emergency authority army vip passenger hov taxi bus coach delivery truck trailer motorcycle evehicle custom1 custom2" oneway="1"/>
    <type id="highway.path" priority="1" numLanes="1" speed="2.78" allow="pedestrian bicycle" oneway="1" width="2.00"/>
    <type id="highway.pedestrian" priority="1" numLanes="1" speed="2.78" allow="pedestrian" oneway="1" width="2.00"/>
    <type id="highway.primary" priority="12" numLanes="2" speed="27.78" disallow="tram rail_urban rail rail_electric ship" oneway="0"/>
    <type id="highway.primary_link" priority="7" numLanes="1" speed="22.22" disallow="tram rail_urban rail rail_electric ship" oneway="0"/>
    <type id="highway.raceway" priority="15" numLanes="2" speed="83.33" allow="vip" oneway="0"/>
    <type id="highway.residential" priority="3" numLanes="1" speed="13.89" disallow="tram rail_urban rail rail_electric ship" oneway="0"/>
    <type id="highway.secondary" priority="11" numLanes="2" speed="27.78" disallow="tram rail_urban rail rail_electric ship" oneway="0"/>
    <type id="highway.secondary_link" priority="6" numLanes="1" speed="22.22" disallow="tram rail_urban rail rail_electric ship" oneway="0"/>
    <type id="highway.service" priority="1" numLanes="1" speed="5.56" allow="pedestrian delivery bicycle" oneway="0"/>
    <type id="highway.stairs" priority="1" numLanes="1" speed="1.39" allow="pedestrian" oneway="1" width="2.00"/>
    <type id="highway.step" priority="1" numLanes="1" speed="1.39" allow="pedestrian" oneway="1" width="2.00"/>
    <type id="highway.steps" priority="1" numLanes="1" speed="1.39" allow="pedestrian" oneway="1" width="2.00"/>
    <type id="highway.tertiary" priority="10" numLanes="1" speed="22.22" disallow="tram rail_urban rail rail_electric ship" oneway="0"/>
    <type id="highway.tertiary_link" priority="5" numLanes="1" speed="22.22" disallow="tram rail_urban rail rail_electric ship" oneway="0"/>
    <type id="highway.track" priority="1" numLanes="1" speed="5.56" disallow="tram rail_urban rail rail_electric ship" oneway="0"/>
    <type id="highway.trunk" priority="13" numLanes="2" speed="27.78" disallow="pedestrian bicycle tram rail_urban rail rail_electric ship" oneway="0"/>
    <type id="highway.trunk_link" priority="8" numLanes="1" speed="22.22" disallow="pedestrian bicycle tram rail_urban rail rail_electric ship" oneway="0"/>
    <type id="highway.unclassified" priority="4" numLanes="1" speed="13.89" disallow="tram rail_urban rail rail_electric ship" oneway="0"/>
    <type id="highway.unsurfaced" priority="1" numLanes="1" speed="8.33" disallow="tram rail_urban rail rail_electric ship" oneway="0"/>
    <type id="railway.highspeed" priority="21" numLanes="1" speed="69.44" allow="rail_electric" oneway="1"/>
    <type id="railway.light_rail" priority="19" numLanes="1" speed="27.78" allow="rail_urban" oneway="1"/>
    <type id="railway.preserved" priority="16" numLanes="1" speed="27.78" allow="rail" oneway="1"/>
    <type id="railway.rail" priority="20" numLanes="1" speed="44.44" allow="rail" oneway="1"/>
    <type id="railway.subway" priority="18" numLanes="1" speed="27.78" allow="rail_urban" oneway="1"/>
    <type id="railway.tram" priority="17" numLanes="1" speed="13.89" allow="tram" oneway="1"/>

    <edge id=":gneJ227_0" function="internal">
        <lane id=":gneJ227_0_0" index="0" allow="pedestrian" speed="13.89" length="8.69" width="3.00" shape="4218.62,7798.14 4221.04,7798.68 4222.55,7799.80 4224.06,7800.88 4226.47,7801.34"/>
        <lane id=":gneJ227_0_1" index="1" allow="bicycle" speed="13.89" length="8.69" width="3.00" shape="4218.57,7801.14 4221.01,7801.68 4222.54,7802.80 4224.07,7803.88 4226.51,7804.34"/>
        <lane id=":gneJ227_0_2" index="2" disallow="pedestrian" speed="13.89" length="8.69" shape="4218.51,7804.24 4220.98,7804.78 4222.53,7805.90 4224.08,7806.98 4226.56,7807.44"/>
        <lane id=":gneJ227_0_3" index="3" disallow="pedestrian" speed="13.89" length="8.69" shape="4218.45,7807.44 4220.95,7807.98 4222.52,7809.10 4224.09,7810.18 4226.60,7810.64"/>
        <lane id=":gneJ227_0_4" index="4" disallow="pedestrian" speed="13.89" length="8.69" shape="4218.39,7810.64 4226.60,7810.64"/>
    </edge>
    <edge id=":gneJ227_5" function="internal">
        <lane id=":gneJ227_5_0" index="0" disallow="pedestrian" speed="13.89" length="8.24" shape="4218.39,7810.64 4220.84,7810.69 4222.51,7810.77 4224.18,7810.91 4226.61,7811.19"/>
    </edge>
    <edge id=":gneJ228_0" function="internal">
        <lane id=":gneJ228_0_0" index="0" disallow="pedestrian" speed="13.89" length="17.02" shape="4343.76,7842.02 4326.74,7841.59"/>
        <lane id=":gneJ228_0_1" index="1" disallow="pedestrian" speed="13.89" length="17.02" shape="4343.83,7838.82 4326.82,7838.39"/>
        <lane id=":gneJ228_0_2" index="2" disallow="pedestrian" speed="13.89" length="17.02" shape="4343.91,7835.62 4326.90,7835.19"/>
        <lane id=":gneJ228_0_3" index="3" disallow="pedestrian" speed="13.89" length="17.02" shape="4343.99,7832.43 4326.98,7832.00"/>
    </edge>
    <edge id=":gneJ228_4" function="internal">
        <lane id=":gneJ228_4_0" index="0" speed="13.89" length="16.80" shape="4327.98,7815.94 4331.46,7816.54 4334.87,7817.76 4338.92,7818.99 4344.29,7819.63"/>
    </edge>
    <edge id=":gneJ228_5" function="internal">
        <lane id=":gneJ228_5_0" index="0" disallow="pedestrian" speed="13.89" length="17.01" shape="4327.29,7819.20 4344.29,7819.63"/>
        <lane id=":gneJ228_5_1" index="1" disallow="pedestrian" speed="13.89" length="17.01" shape="4327.21,7822.40 4344.22,7822.83"/>
        <lane id=":gneJ228_5_2" index="2" disallow="pedestrian" speed="13.89" length="17.01" shape="4327.13,7825.60 4344.14,7826.03"/>
        <lane id=":gneJ228_5_3" index="3" disallow="pedestrian" speed="13.89" length="17.01" shape="4327.06,7828.80 4344.06,7829.23"/>
    </edge>

    <edge id="gneE430.352" from="gneJ719" to="gneJ227" priority="-1">
        <lane id="gneE430.352_0" index="0" allow="pedestrian" speed="13.89" length="55.97" width="3.00" shape="4162.67,7797.10 4218.62,7798.14"/>
        <lane id="gneE430.352_1" index="1" allow="bicycle" speed="13.89" length="55.97" width="3.00" shape="4162.61,7800.10 4218.57,7801.14"/>
        <lane id="gneE430.352_2" index="2" disallow="pedestrian" speed="13.89" length="55.97" shape="4162.55,7803.20 4218.51,7804.24"/>
        <lane id="gneE430.352_3" index="3" disallow="pedestrian" speed="13.89" length="55.97" shape="4162.49,7806.40 4218.45,7807.44"/>
        <lane id="gneE430.352_4" index="4" disallow="pedestrian" speed="13.89" length="55.97" shape="4162.43,7809.60 4218.39,7810.64"/>
    </edge>
    <edge id="gneE431" from="gneJ227" to="gneJ516" priority="-1" shape="4222.34,7812.31 4250.60,7811.85 4436.02,7817.26">
        <lane id="gneE431_0" index="0" allow="pedestrian" speed="13.89" length="209.75" width="3.00" shape="4226.47,7801.34 4250.67,7800.95 4436.34,7806.36"/>
        <lane id="gneE431_1" index="1" allow="bicycle" speed="13.89" length="209.75" width="3.00" shape="4226.51,7804.34 4250.65,7803.95 4436.25,7809.36"/>
        <lane id="gneE431_2" index="2" disallow="pedestrian" speed="13.89" length="209.75" shape="4226.56,7807.44 4250.63,7807.05 4436.16,7812.46"/>
        <lane id="gneE431_3" index="3" disallow="pedestrian" speed="13.89" length="209.75" shape="4226.60,7810.64 4250.61,7810.25 4436.07,7815.66"/>
    </edge>
    <edge id="gneE432.431" from="gneJ718" to="gneJ228" priority="-1">
        <lane id="gneE432.431_0" index="0" disallow="pedestrian" speed="13.89" length="166.16" shape="4161.19,7815.11 4327.29,7819.20"/>
        <lane id="gneE432.431_1" index="1" disallow="pedestrian" speed="13.89" length="166.16" shape="4161.11,7818.30 4327.21,7822.40"/>
        <lane id="gneE432.431_2" index="2" disallow="pedestrian" speed="13.89" length="166.16" shape="4161.03,7821.50 4327.13,7825.60"/>
        <lane id="gneE432.431_3" index="3" disallow="pedestrian" speed="13.89" length="166.16" shape="4160.95,7824.70 4327.06,7828.80"/>
    </edge>
    <edge id="gneE483" from="gneJ228" to="gneJ718" priority="-1">
        <lane id="gneE483_0" index="0" disallow="pedestrian" speed="13.89" length="166.16" shape="4326.74,7841.59 4160.63,7837.50"/>
        <lane id="gneE483_1" index="1" disallow="pedestrian" speed="13.89" length="166.16" shape="4326.82,7838.39 4160.71,7834.30"/>
        <lane id="gneE483_2" index="2" disallow="pedestrian" speed="13.89" length="166.16" shape="4326.90,7835.19 4160.79,7831.10"/>
        <lane id="gneE483_3" index="3" disallow="pedestrian" speed="13.89" length="166.16" shape="4326.98,7832.00 4160.87,7827.90"/>
    </edge>
    <edge id="gneE650.544" from="gneJ711" to="gneJ717" priority="-1">
        <lane id="gneE650.544_0" index="0" allow="pedestrian" speed="13.89" length="270.18" width="3.00" shape="4434.69,7861.40 4164.59,7855.13"/>
        <lane id="gneE650.544_1" index="1" allow="bicycle" speed="13.89" length="270.18" width="3.00" shape="4434.76,7858.40 4164.66,7852.13"/>
        <lane id="gneE650.544_2" index="2" disallow="pedestrian" speed="13.89" length="270.18" shape="4434.83,7855.30 4164.73,7849.03"/>
        <lane id="gneE650.544_3" index="3" disallow="pedestrian" speed="13.89" length="270.18" shape="4434.91,7852.10 4164.80,7845.84"/>
        <lane id="gneE650.544_4" index="4" disallow="pedestrian" speed="13.89" length="270.18" shape="4434.98,7848.90 4164.88,7842.64"/>
    </edge>
    <edge id="gneE653" from="gneJ227" to="gneJ228" priority="-1" shape="4222.34,7812.31 4250.79,7815.56 4273.75,7816.18 4298.90,7816.84 4331.14,7817.62 4364.53,7831.32">
        <lane id="gneE653_0" index="0" speed="13.89" length="101.55" shape="4226.61,7811.19 4250.90,7813.96 4273.79,7814.58 4298.94,7815.24 4327.98,7815.94"/>
    </edge>
    <edge id="gneE742" from="gneJ228" to="gneJ716" priority="-1">
        <lane id="gneE742_0" index="0" speed="13.89" length="89.87" shape="4344.29,7819.63 4434.14,7821.79"/>
        <lane id="gneE742_1" index="1" speed="13.89" length="89.87" shape="4344.22,7822.83 4434.06,7824.99"/>
        <lane id="gneE742_2" index="2" speed="13.89" length="89.87" shape="4344.14,7826.03 4433.99,7828.19"/>
        <lane id="gneE742_3" index="3" speed="13.89" length="89.87" shape="4344.06,7829.23 4433.91,7831.39"/>
    </edge>
    <edge id="gneE743" from="gneJ716" to="gneJ228" priority="-1">
        <lane id="gneE743_0" index="0" speed="13.89" length="89.87" shape="4433.60,7844.19 4343.76,7842.02"/>
        <lane id="gneE743_1" index="1" speed="13.89" length="89.87" shape="4433.68,7840.99 4343.83,7838.82"/>
        <lane id="gneE743_2" index="2" speed="13.89" length="89.87" shape="4433.75,7837.79 4343.91,7835.62"/>
        <lane id="gneE743_3" index="3" speed="13.89" length="89.87" shape="4433.83,7834.59 4343.99,7832.43"/>
    </edge>

    <junction id="1074447680" type="dead_end" x="21973.65" y="13246.29" incLanes="" intLanes="" shape="21973.65,13246.29"/>
    <junction id="1352354130" type="dead_end" x="21971.23" y="13250.21" incLanes="" intLanes="" shape="21971.23,13250.21"/>
    <junction id="1366374640" type="dead_end" x="6689.75" y="4477.14" incLanes="" intLanes="" shape="6689.75,4477.14"/>
    <junction id="1660324146" type="dead_end" x="8711.36" y="6.75" incLanes="" intLanes="" shape="8711.36,6.75"/>
    <junction id="1660324147" type="dead_end" x="8728.26" y="0.00" incLanes="" intLanes="" shape="8728.26,0.00"/>
    <junction id="1836104835" type="dead_end" x="15370.30" y="8900.09" incLanes="" intLanes="" shape="15370.30,8900.09"/>
    <junction id="gneJ227" type="priority" x="4222.34" y="7812.31" incLanes="gneE430.352_0 gneE430.352_1 gneE430.352_2 gneE430.352_3 gneE430.352_4" intLanes=":gneJ227_0_0 :gneJ227_0_1 :gneJ227_0_2 :gneJ227_0_3 :gneJ227_0_4 :gneJ227_5_0" shape="4226.63,7812.80 4226.45,7799.84 4223.49,7799.06 4222.55,7798.30 4221.61,7797.52 4220.40,7796.91 4218.65,7796.64 4218.36,7812.24 4221.43,7812.31 4222.50,7812.37 4223.58,7812.46 4224.87,7812.60">
        <request index="0" response="000000" foes="000000" cont="0"/>
        <request index="1" response="000000" foes="000000" cont="0"/>
        <request index="2" response="000000" foes="000000" cont="0"/>
        <request index="3" response="000000" foes="010000" cont="0"/>
        <request index="4" response="001000" foes="001000" cont="0"/>
        <request index="5" response="000000" foes="000000" cont="0"/>
    </junction>
    <junction id="gneJ228" type="priority" x="4364.53" y="7831.32" incLanes="gneE743_0 gneE743_1 gneE743_2 gneE743_3 gneE653_0 gneE432.431_0 gneE432.431_1 gneE432.431_2 gneE432.431_3" intLanes=":gneJ228_0_0 :gneJ228_0_1 :gneJ228_0_2 :gneJ228_0_3 :gneJ228_4_0 :gneJ228_5_0 :gneJ228_5_1 :gneJ228_5_2 :gneJ228_5_3" shape="4343.72,7843.62 4344.33,7818.03 4340.93,7817.70 4338.46,7817.03 4334.48,7815.35 4332.01,7814.68 4328.61,7814.36 4327.35,7817.53 4326.70,7843.19">
        <request index="0" response="000000000" foes="000000000" cont="0"/>
        <request index="1" response="000000000" foes="000000000" cont="0"/>
        <request index="2" response="000000000" foes="000000000" cont="0"/>
        <request index="3" response="000000000" foes="000000000" cont="0"/>
        <request index="4" response="111100000" foes="111100000" cont="0"/>
        <request index="5" response="000000000" foes="000010000" cont="0"/>
        <request index="6" response="000000000" foes="000010000" cont="0"/>
        <request index="7" response="000000000" foes="000010000" cont="0"/>
        <request index="8" response="000000000" foes="000010000" cont="0"/>
    </junction>
    <junction id="gneJ516" type="dead_end" x="4436.02" y="7817.26" incLanes="gneE431_0 gneE431_1 gneE431_2 gneE431_3" intLanes="" shape="4436.38,7804.87 4436.02,7817.26"/>
    <junction id="gneJ711" type="dead_end" x="4435.02" y="7847.30" incLanes="" intLanes="" shape="4435.02,7847.30 4434.66,7862.90"/>
    <junction id="gneJ716" type="dead_end" x="4433.87" y="7832.99" incLanes="gneE742_0 gneE742_1 gneE742_2 gneE742_3" intLanes="" shape="4433.87,7832.99 4434.18,7820.19 4433.87,7832.99"/>
    <junction id="gneJ717" type="dead_end" x="4164.92" y="7841.04" incLanes="gneE650.544_0 gneE650.544_1 gneE650.544_2 gneE650.544_3 gneE650.544_4" intLanes="" shape="4164.55,7856.63 4164.92,7841.04"/>
    <junction id="gneJ718" type="dead_end" x="4160.91" y="7826.30" incLanes="gneE483_0 gneE483_1 gneE483_2 gneE483_3" intLanes="" shape="4160.91,7826.30 4160.59,7839.10 4160.91,7826.30"/>
    <junction id="gneJ719" type="dead_end" x="4162.40" y="7811.20" incLanes="" intLanes="" shape="4162.40,7811.20 4162.69,7795.60"/>

    <connection from="gneE430.352" to="gneE431" fromLane="0" toLane="0" via=":gneJ227_0_0" dir="s" state="M"/>
    <connection from="gneE430.352" to="gneE431" fromLane="1" toLane="1" via=":gneJ227_0_1" dir="s" state="M"/>
    <connection from="gneE430.352" to="gneE431" fromLane="2" toLane="2" via=":gneJ227_0_2" dir="s" state="M"/>
    <connection from="gneE430.352" to="gneE431" fromLane="3" toLane="3" via=":gneJ227_0_3" dir="s" state="M"/>
    <connection from="gneE430.352" to="gneE431" fromLane="4" toLane="3" via=":gneJ227_0_4" dir="s" state="m"/>
    <connection from="gneE430.352" to="gneE653" fromLane="4" toLane="0" via=":gneJ227_5_0" dir="L" state="M"/>
    <connection from="gneE432.431" to="gneE742" fromLane="0" toLane="0" via=":gneJ228_5_0" dir="s" state="M"/>
    <connection from="gneE432.431" to="gneE742" fromLane="1" toLane="1" via=":gneJ228_5_1" dir="s" state="M"/>
    <connection from="gneE432.431" to="gneE742" fromLane="2" toLane="2" via=":gneJ228_5_2" dir="s" state="M"/>
    <connection from="gneE432.431" to="gneE742" fromLane="3" toLane="3" via=":gneJ228_5_3" dir="s" state="M"/>
    <connection from="gneE653" to="gneE742" fromLane="0" toLane="0" via=":gneJ228_4_0" dir="s" state="m"/>
    <connection from="gneE743" to="gneE483" fromLane="0" toLane="0" via=":gneJ228_0_0" dir="s" state="M"/>
    <connection from="gneE743" to="gneE483" fromLane="1" toLane="1" via=":gneJ228_0_1" dir="s" state="M"/>
    <connection from="gneE743" to="gneE483" fromLane="2" toLane="2" via=":gneJ228_0_2" dir="s" state="M"/>
    <connection from="gneE743" to="gneE483" fromLane="3" toLane="3" via=":gneJ228_0_3" dir="s" state="M"/>

    <connection from=":gneJ227_0" to="gneE431" fromLane="0" toLane="0" dir="s" state="M"/>
    <connection from=":gneJ227_0" to="gneE431" fromLane="1" toLane="1" dir="s" state="M"/>
    <connection from=":gneJ227_0" to="gneE431" fromLane="2" toLane="2" dir="s" state="M"/>
    <connection from=":gneJ227_0" to="gneE431" fromLane="3" toLane="3" dir="s" state="M"/>
    <connection from=":gneJ227_0" to="gneE431" fromLane="4" toLane="3" dir="s" state="M"/>
    <connection from=":gneJ227_5" to="gneE653" fromLane="0" toLane="0" dir="L" state="M"/>
    <connection from=":gneJ228_0" to="gneE483" fromLane="0" toLane="0" dir="s" state="M"/>
    <connection from=":gneJ228_0" to="gneE483" fromLane="1" toLane="1" dir="s" state="M"/>
    <connection from=":gneJ228_0" to="gneE483" fromLane="2" toLane="2" dir="s" state="M"/>
    <connection from=":gneJ228_0" to="gneE483" fromLane="3" toLane="3" dir="s" state="M"/>
    <connection from=":gneJ228_4" to="gneE742" fromLane="0" toLane="0" dir="s" state="M"/>
    <connection from=":gneJ228_5" to="gneE742" fromLane="0" toLane="0" dir="s" state="M"/>
    <connection from=":gneJ228_5" to="gneE742" fromLane="1" toLane="1" dir="s" state="M"/>
    <connection from=":gneJ228_5" to="gneE742" fromLane="2" toLane="2" dir="s" state="M"/>
    <connection from=":gneJ228_5" to="gneE742" fromLane="3" toLane="3" dir="s" state="M"/>

</net>
