<?xml version="1.0" encoding="UTF-8"?>

<!-- generated on 12/28/20 15:45:14 by Eclipse SUMO netedit Version 1.6.0
<configuration xmlns:xsi="http://www.w3.org/2001/XMLSchema-instance" xsi:noNamespaceSchemaLocation="http://sumo.dlr.de/xsd/netconvertConfiguration.xsd">

    <input>
        <sumo-net-file value="C:\hansm\idlab\graduation\simulation\roundabout.net.xml"/>
    </input>

    <output>
        <output-file value="C:\hansm\idlab\graduation\simulation\roundabout.net.xml"/>
    </output>

    <processing>
        <geometry.min-radius.fix.railways value="false"/>
        <geometry.max-grade.fix value="false"/>
        <offset.disable-normalization value="true"/>
        <lefthand value="false"/>
    </processing>

    <junctions>
        <no-turnarounds value="true"/>
        <junctions.corner-detail value="5"/>
        <junctions.limit-turn-speed value="5.5"/>
        <rectangular-lane-cut value="false"/>
    </junctions>

    <pedestrian>
        <walkingareas value="false"/>
    </pedestrian>

    <report>
        <aggregate-warnings value="5"/>
    </report>

</configuration>
-->

<net version="1.6" junctionCornerDetail="5" limitTurnSpeed="5.50" xmlns:xsi="http://www.w3.org/2001/XMLSchema-instance" xsi:noNamespaceSchemaLocation="http://sumo.dlr.de/xsd/net_file.xsd">

    <location netOffset="-437203.78,-4418435.12" convBoundary="3531.44,0.00,21973.65,13250.21" origBoundary="116.264254,39.914284,116.521519,40.034403" projParameter="+proj=utm +zone=50 +ellps=WGS84 +datum=WGS84 +units=m +no_defs"/>

    <type id="highway.bridleway" priority="1" numLanes="1" speed="2.78" allow="pedestrian" oneway="1" width="2.00"/>
    <type id="highway.bus_guideway" priority="1" numLanes="1" speed="27.78" allow="bus" oneway="1"/>
    <type id="highway.cycleway" priority="1" numLanes="1" speed="8.33" allow="bicycle" oneway="0" width="1.00"/>
    <type id="highway.footway" priority="1" numLanes="1" speed="2.78" allow="pedestrian" oneway="1" width="2.00"/>
    <type id="highway.ford" priority="1" numLanes="1" speed="2.78" allow="army" oneway="0"/>
    <type id="highway.living_street" priority="2" numLanes="1" speed="2.78" disallow="tram rail_urban rail rail_electric ship" oneway="0"/>
    <type id="highway.motorway" priority="14" numLanes="2" speed="39.44" allow="private emergency authority army vip passenger hov taxi bus coach delivery truck trailer motorcycle evehicle custom1 custom2" oneway="1"/>
    <type id="highway.motorway_link" priority="9" numLanes="1" speed="22.22" allow="private emergency authority army vip passenger hov taxi bus coach delivery truck trailer motorcycle evehicle custom1 custom2" oneway="1"/>
    <type id="highway.path" priority="1" numLanes="1" speed="2.78" allow="pedestrian bicycle" oneway="1" width="2.00"/>
    <type id="highway.pedestrian" priority="1" numLanes="1" speed="2.78" allow="pedestrian" oneway="1" width="2.00"/>
    <type id="highway.primary" priority="12" numLanes="2" speed="27.78" disallow="tram rail_urban rail rail_electric ship" oneway="0"/>
    <type id="highway.primary_link" priority="7" numLanes="1" speed="22.22" disallow="tram rail_urban rail rail_electric ship" oneway="0"/>
    <type id="highway.raceway" priority="15" numLanes="2" speed="83.33" allow="vip" oneway="0"/>
    <type id="highway.residential" priority="3" numLanes="1" speed="13.89" disallow="tram rail_urban rail rail_electric ship" oneway="0"/>
    <type id="highway.secondary" priority="11" numLanes="2" speed="27.78" disallow="tram rail_urban rail rail_electric ship" oneway="0"/>
    <type id="highway.secondary_link" priority="6" numLanes="1" speed="22.22" disallow="tram rail_urban rail rail_electric ship" oneway="0"/>
    <type id="highway.service" priority="1" numLanes="1" speed="5.56" allow="pedestrian delivery bicycle" oneway="0"/>
    <type id="highway.stairs" priority="1" numLanes="1" speed="1.39" allow="pedestrian" oneway="1" width="2.00"/>
    <type id="highway.step" priority="1" numLanes="1" speed="1.39" allow="pedestrian" oneway="1" width="2.00"/>
    <type id="highway.steps" priority="1" numLanes="1" speed="1.39" allow="pedestrian" oneway="1" width="2.00"/>
    <type id="highway.tertiary" priority="10" numLanes="1" speed="22.22" disallow="tram rail_urban rail rail_electric ship" oneway="0"/>
    <type id="highway.tertiary_link" priority="5" numLanes="1" speed="22.22" disallow="tram rail_urban rail rail_electric ship" oneway="0"/>
    <type id="highway.track" priority="1" numLanes="1" speed="5.56" disallow="tram rail_urban rail rail_electric ship" oneway="0"/>
    <type id="highway.trunk" priority="13" numLanes="2" speed="27.78" disallow="pedestrian bicycle tram rail_urban rail rail_electric ship" oneway="0"/>
    <type id="highway.trunk_link" priority="8" numLanes="1" speed="22.22" disallow="pedestrian bicycle tram rail_urban rail rail_electric ship" oneway="0"/>
    <type id="highway.unclassified" priority="4" numLanes="1" speed="13.89" disallow="tram rail_urban rail rail_electric ship" oneway="0"/>
    <type id="highway.unsurfaced" priority="1" numLanes="1" speed="8.33" disallow="tram rail_urban rail rail_electric ship" oneway="0"/>
    <type id="railway.highspeed" priority="21" numLanes="1" speed="69.44" allow="rail_electric" oneway="1"/>
    <type id="railway.light_rail" priority="19" numLanes="1" speed="27.78" allow="rail_urban" oneway="1"/>
    <type id="railway.preserved" priority="16" numLanes="1" speed="27.78" allow="rail" oneway="1"/>
    <type id="railway.rail" priority="20" numLanes="1" speed="44.44" allow="rail" oneway="1"/>
    <type id="railway.subway" priority="18" numLanes="1" speed="27.78" allow="rail_urban" oneway="1"/>
    <type id="railway.tram" priority="17" numLanes="1" speed="13.89" allow="tram" oneway="1"/>

    <edge id=":gneJ621_0" function="internal">
        <lane id=":gneJ621_0_0" index="0" allow="bicycle" speed="13.89" length="2.99" width="3.00" shape="3781.73,9540.60 3779.98,9538.21"/>
        <lane id=":gneJ621_0_1" index="1" disallow="pedestrian" speed="13.89" length="2.99" width="3.75" shape="3785.82,9540.53 3785.60,9539.71 3785.11,9539.24 3784.61,9538.77 3784.34,9537.95"/>
        <lane id=":gneJ621_0_2" index="2" disallow="pedestrian" speed="13.89" length="2.99" width="3.75" shape="3789.02,9540.48 3788.88,9539.64 3788.58,9539.10 3788.27,9538.56 3788.09,9537.72"/>
        <lane id=":gneJ621_0_3" index="3" disallow="pedestrian" speed="13.89" length="2.99" width="3.75" shape="3792.22,9540.43 3792.16,9539.55 3792.05,9538.96 3791.93,9538.36 3791.83,9537.49"/>
    </edge>
    <edge id=":gneJ621_4" function="internal">
        <lane id=":gneJ621_4_0" index="0" allow="bicycle" speed="13.89" length="3.68" width="3.00" shape="3807.72,9536.52 3807.39,9537.67 3806.76,9538.36 3806.17,9539.04 3805.92,9540.20"/>
        <lane id=":gneJ621_4_1" index="1" disallow="pedestrian" speed="13.89" length="3.68" shape="3803.33,9536.79 3803.04,9537.86 3802.52,9538.52 3802.03,9539.19 3801.82,9540.26"/>
        <lane id=":gneJ621_4_2" index="2" disallow="pedestrian" speed="13.89" length="3.68" shape="3799.55,9537.02 3799.36,9538.01 3799.04,9538.67 3798.74,9539.32 3798.62,9540.32"/>
        <lane id=":gneJ621_4_3" index="3" disallow="pedestrian" speed="13.89" length="3.68" shape="3795.78,9537.25 3795.42,9540.37"/>
    </edge>
    <edge id=":gneJ625_0" function="internal">
        <lane id=":gneJ625_0_0" index="0" allow="pedestrian" speed="13.89" length="13.03" width="2.00" shape="3956.97,9386.81 3953.13,9387.09 3950.56,9388.00 3947.99,9388.96 3944.15,9389.37"/>
        <lane id=":gneJ625_0_1" index="1" allow="bicycle" speed="13.89" length="13.03" width="2.00" shape="3957.01,9384.81 3953.17,9385.09 3950.60,9386.00 3948.02,9386.96 3944.17,9387.37"/>
        <lane id=":gneJ625_0_2" index="2" disallow="pedestrian" speed="13.89" length="13.03" width="3.75" shape="3957.04,9384.21 3944.21,9384.50"/>
        <lane id=":gneJ625_0_3" index="3" disallow="pedestrian" speed="13.89" length="13.03" width="3.75" shape="3957.13,9381.01 3944.25,9380.75"/>
    </edge>
    <edge id=":gneJ625_4" function="internal">
        <lane id=":gneJ625_4_0" index="0" allow="pedestrian" speed="13.89" length="13.22" width="2.00" shape="3944.39,9368.17 3948.31,9369.04 3950.87,9370.25 3953.44,9371.38 3957.38,9372.01"/>
        <lane id=":gneJ625_4_1" index="1" disallow="pedestrian" speed="13.89" length="13.22" shape="3944.33,9373.07 3957.31,9374.61"/>
        <lane id=":gneJ625_4_2" index="2" disallow="pedestrian" speed="13.89" length="13.22" shape="3944.29,9376.84 3957.22,9377.81"/>
    </edge>
    <edge id=":gneJ630_0" function="internal">
        <lane id=":gneJ630_0_0" index="0" allow="bicycle" speed="13.89" length="3.60" width="2.00" shape="3643.81,9385.19 3642.63,9385.05 3641.81,9384.98 3641.00,9384.95 3639.81,9384.94"/>
        <lane id=":gneJ630_0_1" index="1" disallow="pedestrian" speed="13.89" length="3.60" width="3.75" shape="3643.59,9382.27 3642.47,9382.15 3641.71,9382.09 3640.94,9382.07 3639.82,9382.06"/>
        <lane id=":gneJ630_0_2" index="2" disallow="pedestrian" speed="13.89" length="3.60" width="3.75" shape="3643.30,9378.46 3642.28,9378.36 3641.57,9378.32 3640.87,9378.31 3639.84,9378.31"/>
        <lane id=":gneJ630_0_3" index="3" disallow="pedestrian" speed="13.89" length="3.60" width="3.75" shape="3643.01,9374.65 3642.08,9374.56 3641.44,9374.54 3640.79,9374.56 3639.86,9374.56"/>
    </edge>
    <edge id=":gneJ630_4" function="internal">
        <lane id=":gneJ630_4_0" index="0" allow="bicycle" speed="13.89" length="2.41" width="2.00" shape="3639.92,9360.44 3641.94,9360.45"/>
        <lane id=":gneJ630_4_1" index="1" disallow="pedestrian" speed="13.89" length="2.41" width="3.75" shape="3639.91,9363.31 3642.15,9363.32"/>
        <lane id=":gneJ630_4_2" index="2" disallow="pedestrian" speed="13.89" length="2.41" width="3.75" shape="3639.89,9367.06 3642.44,9367.06"/>
        <lane id=":gneJ630_4_3" index="3" disallow="pedestrian" speed="13.89" length="2.41" width="3.75" shape="3639.87,9370.81 3642.72,9370.80"/>
    </edge>
    <edge id=":gneJ635_0" function="internal">
        <lane id=":gneJ635_0_0" index="0" allow="bicycle" speed="13.89" length="0.31" width="3.00" shape="3812.08,9214.43 3812.09,9213.97"/>
        <lane id=":gneJ635_0_1" index="1" disallow="pedestrian" speed="13.89" length="0.31" width="3.75" shape="3808.70,9214.39 3808.72,9214.16"/>
        <lane id=":gneJ635_0_2" index="2" disallow="pedestrian" speed="13.89" length="0.31" width="3.75" shape="3804.95,9214.35 3804.98,9214.38"/>
        <lane id=":gneJ635_0_3" index="3" disallow="pedestrian" speed="13.89" length="0.31" width="3.75" shape="3801.20,9214.31 3801.21,9214.39 3801.22,9214.45 3801.23,9214.51 3801.23,9214.59"/>
        <lane id=":gneJ635_0_4" index="4" disallow="pedestrian" speed="13.89" length="0.31" width="3.75" shape="3797.45,9214.27 3797.49,9214.81"/>
    </edge>
    <edge id=":gneJ635_5" function="internal">
        <lane id=":gneJ635_5_0" index="0" allow="bicycle" speed="13.89" length="1.26" width="4.00" shape="3780.44,9215.79 3780.54,9215.28 3780.65,9214.94 3780.74,9214.60 3780.78,9214.09"/>
        <lane id=":gneJ635_5_1" index="1" disallow="pedestrian" speed="13.89" length="1.26" shape="3784.10,9215.58 3784.18,9215.15 3784.27,9214.86 3784.35,9214.56 3784.38,9214.13"/>
        <lane id=":gneJ635_5_2" index="2" disallow="pedestrian" speed="13.89" length="1.26" shape="3787.35,9215.39 3787.42,9215.03 3787.50,9214.78 3787.55,9214.53 3787.58,9214.16"/>
        <lane id=":gneJ635_5_3" index="3" disallow="pedestrian" speed="13.89" length="1.26" shape="3790.61,9215.20 3790.66,9214.90 3790.72,9214.70 3790.76,9214.50 3790.78,9214.20"/>
        <lane id=":gneJ635_5_4" index="4" disallow="pedestrian" speed="13.89" length="1.26" shape="3793.86,9215.02 3793.90,9214.78 3793.94,9214.63 3793.97,9214.47 3793.98,9214.23"/>
    </edge>
    <edge id=":gneJ686_0" function="internal">
        <lane id=":gneJ686_0_0" index="0" allow="bicycle" speed="13.89" length="36.07" width="3.00" shape="3821.60,9250.17 3827.40,9259.03 3832.39,9264.45 3838.60,9268.56 3848.08,9273.45"/>
    </edge>
    <edge id=":gneJ686_1" function="internal">
        <lane id=":gneJ686_1_0" index="0" disallow="pedestrian" speed="13.89" length="39.49" width="3.75" shape="3817.75,9251.78 3824.07,9261.53 3829.45,9267.57 3836.16,9272.15 3846.50,9277.56"/>
    </edge>
    <edge id=":gneJ686_2" function="internal">
        <lane id=":gneJ686_2_0" index="0" disallow="pedestrian" speed="13.89" length="42.58" width="3.75" shape="3814.22,9253.20 3821.02,9263.72 3826.80,9270.26 3834.01,9275.24 3845.14,9281.08"/>
    </edge>
    <edge id=":gneJ686_3" function="internal">
        <lane id=":gneJ686_3_0" index="0" disallow="pedestrian" speed="13.89" length="45.67" width="3.75" shape="3810.69,9254.62 3817.98,9265.92 3824.15,9272.96 3831.86,9278.32 3843.79,9284.60"/>
    </edge>
    <edge id=":gneJ686_4" function="internal">
        <lane id=":gneJ686_4_0" index="0" allow="bicycle" speed="13.89" length="43.94" width="3.00" shape="3806.61,9260.69 3819.51,9261.78 3828.22,9263.81 3836.49,9267.47 3848.08,9273.45"/>
        <lane id=":gneJ686_4_1" index="1" disallow="pedestrian" speed="13.89" length="43.94" width="3.75" shape="3805.00,9264.99 3817.90,9266.05 3826.62,9268.01 3834.91,9271.60 3846.50,9277.56"/>
        <lane id=":gneJ686_4_2" index="2" disallow="pedestrian" speed="13.89" length="43.94" width="3.75" shape="3803.61,9268.67 3816.52,9269.71 3825.25,9271.61 3833.55,9275.15 3845.14,9281.08"/>
        <lane id=":gneJ686_4_3" index="3" disallow="pedestrian" speed="13.89" length="43.94" width="3.75" shape="3802.23,9272.35 3815.13,9273.36 3823.88,9275.21 3832.19,9278.70 3843.79,9284.60"/>
    </edge>
    <edge id=":gneJ687_0" function="internal">
        <lane id=":gneJ687_0_0" index="0" allow="bicycle" speed="13.89" length="34.97" width="4.00" shape="3741.48,9273.53 3750.34,9268.43 3755.68,9263.77 3760.06,9257.98 3766.06,9249.49"/>
    </edge>
    <edge id=":gneJ687_1" function="internal">
        <lane id=":gneJ687_1_0" index="0" allow="bicycle" speed="13.89" length="42.98" width="3.00" shape="3741.48,9273.53 3752.90,9267.93 3761.06,9264.80 3769.62,9262.85 3782.20,9260.82"/>
    </edge>
    <edge id=":gneJ687_2" function="internal">
        <lane id=":gneJ687_2_0" index="0" disallow="pedestrian" speed="13.89" length="13.07" shape="3743.06,9277.63 3752.67,9272.00 3754.09,9270.69"/>
    </edge>
    <edge id=":gneJ687_3" function="internal">
        <lane id=":gneJ687_3_0" index="0" disallow="pedestrian" speed="13.89" length="16.11" shape="3743.06,9277.63 3753.33,9272.15 3756.98,9269.58"/>
    </edge>
    <edge id=":gneJ687_4" function="internal">
        <lane id=":gneJ687_4_0" index="0" disallow="pedestrian" speed="13.89" length="21.74" shape="3743.06,9277.63 3754.02,9272.29 3761.51,9268.26 3762.31,9267.59"/>
    </edge>
    <edge id=":gneJ687_5" function="internal">
        <lane id=":gneJ687_5_0" index="0" disallow="pedestrian" speed="13.89" length="26.27" shape="3743.06,9277.63 3754.75,9272.43 3763.11,9269.03 3766.82,9266.57"/>
    </edge>
    <edge id=":gneJ687_6" function="internal">
        <lane id=":gneJ687_6_0" index="0" disallow="pedestrian" speed="13.89" length="43.18" width="3.75" shape="3743.06,9277.63 3754.44,9271.74 3762.56,9268.13 3771.11,9266.12 3783.78,9265.03"/>
        <lane id=":gneJ687_6_1" index="1" disallow="pedestrian" speed="13.89" length="43.18" width="3.75" shape="3744.42,9281.15 3755.80,9275.29 3763.94,9271.73 3772.50,9269.77 3785.17,9268.72"/>
        <lane id=":gneJ687_6_2" index="2" disallow="pedestrian" speed="13.89" length="43.18" width="3.75" shape="3745.77,9284.67 3757.16,9278.83 3765.31,9275.33 3773.88,9273.43 3786.56,9272.40"/>
    </edge>
    <edge id=":gneJ687_9" function="internal">
        <lane id=":gneJ687_9_0" index="0" disallow="pedestrian" speed="13.89" length="25.10" shape="3754.09,9270.69 3758.34,9266.76 3762.97,9260.30 3769.45,9250.96"/>
    </edge>
    <edge id=":gneJ687_10" function="internal">
        <lane id=":gneJ687_10_0" index="0" disallow="pedestrian" speed="13.89" length="23.35" shape="3756.98,9269.58 3759.92,9267.51 3765.43,9261.58 3772.46,9252.27"/>
    </edge>
    <edge id=":gneJ687_11" function="internal">
        <lane id=":gneJ687_11_0" index="0" disallow="pedestrian" speed="13.89" length="19.30" shape="3762.31,9267.59 3767.88,9262.90 3775.47,9253.58"/>
    </edge>
    <edge id=":gneJ687_12" function="internal">
        <lane id=":gneJ687_12_0" index="0" disallow="pedestrian" speed="13.89" length="16.61" shape="3766.82,9266.57 3770.31,9264.24 3778.48,9254.89"/>
    </edge>
    <edge id=":gneJ688_0" function="internal">
        <lane id=":gneJ688_0_0" index="0" allow="bicycle" speed="13.89" length="16.85" width="2.00" shape="3905.32,9344.62 3907.54,9348.92 3909.98,9351.27 3912.99,9353.25 3916.89,9356.43"/>
    </edge>
    <edge id=":gneJ688_1" function="internal">
        <lane id=":gneJ688_1_0" index="0" disallow="pedestrian" speed="13.89" length="20.11" width="3.75" shape="3901.24,9346.19 3904.00,9351.16 3907.19,9353.67 3911.04,9355.73 3915.81,9359.37"/>
    </edge>
    <edge id=":gneJ688_2" function="internal">
        <lane id=":gneJ688_2_0" index="0" disallow="pedestrian" speed="13.89" length="21.86" width="3.75" shape="3901.24,9346.19 3903.83,9352.04 3906.35,9355.68 3909.61,9358.83 3914.40,9363.22"/>
    </edge>
    <edge id=":gneJ688_3" function="internal">
        <lane id=":gneJ688_3_0" index="0" disallow="pedestrian" speed="13.89" length="23.07" width="3.75" shape="3901.24,9346.19 3903.31,9352.63 3903.92,9357.25 3903.87,9362.01 3903.98,9368.87"/>
        <lane id=":gneJ688_3_1" index="1" disallow="pedestrian" speed="13.89" length="23.07" width="3.75" shape="3897.74,9347.53 3899.78,9353.98 3900.32,9358.61 3900.22,9363.39 3900.29,9370.25"/>
        <lane id=":gneJ688_3_2" index="2" disallow="pedestrian" speed="13.89" length="23.07" width="3.75" shape="3894.23,9348.88 3896.25,9355.33 3896.73,9359.98 3896.56,9364.76 3896.61,9371.63"/>
    </edge>
    <edge id=":gneJ689_0" function="internal">
        <lane id=":gneJ689_0_0" index="0" allow="bicycle" speed="13.89" length="25.66" width="3.00" shape="3915.81,9393.68 3910.02,9398.54 3906.48,9402.43 3903.94,9407.04 3901.11,9414.07"/>
    </edge>
    <edge id=":gneJ689_1" function="internal">
        <lane id=":gneJ689_1_0" index="0" disallow="pedestrian" speed="13.89" length="28.88" width="3.75" shape="3913.99,9389.84 3907.40,9395.27 3903.28,9399.54 3900.28,9404.63 3897.03,9412.49"/>
    </edge>
    <edge id=":gneJ689_2" function="internal">
        <lane id=":gneJ689_2_0" index="0" disallow="pedestrian" speed="13.89" length="30.22" width="3.75" shape="3913.99,9389.84 3906.69,9395.14 3901.44,9398.80 3897.35,9403.30 3893.53,9411.14"/>
    </edge>
    <edge id=":gneJ689_3" function="internal">
        <lane id=":gneJ689_3_0" index="0" allow="bicycle" speed="13.89" length="29.14" width="3.00" shape="3907.96,9385.92 3906.67,9394.45 3905.64,9400.29 3904.06,9405.98 3901.11,9414.07"/>
        <lane id=":gneJ689_3_1" index="1" disallow="pedestrian" speed="13.89" length="29.14" width="3.75" shape="3903.69,9384.32 3903.06,9392.92 3902.03,9398.76 3900.16,9404.42 3897.03,9412.49"/>
        <lane id=":gneJ689_3_2" index="2" disallow="pedestrian" speed="13.89" length="29.14" width="3.75" shape="3900.00,9382.93 3899.40,9391.54 3898.43,9397.39 3896.63,9403.07 3893.53,9411.14"/>
        <lane id=":gneJ689_3_3" index="3" disallow="pedestrian" speed="13.89" length="29.14" width="3.75" shape="3896.32,9381.55 3895.75,9390.16 3894.84,9396.03 3893.10,9401.72 3890.03,9409.79"/>
    </edge>
    <edge id=":gneJ696_0" function="internal">
        <lane id=":gneJ696_0_0" index="0" allow="bicycle" speed="13.89" length="32.62" width="3.00" shape="3843.72,9476.45 3835.28,9481.03 3829.96,9485.04 3825.65,9490.18 3820.23,9498.16"/>
    </edge>
    <edge id=":gneJ696_1" function="internal">
        <lane id=":gneJ696_1_0" index="0" allow="bicycle" speed="13.89" length="40.54" width="3.00" shape="3843.72,9476.45 3832.98,9481.79 3825.24,9484.77 3817.09,9486.24 3805.15,9487.07"/>
    </edge>
    <edge id=":gneJ696_2" function="internal">
        <lane id=":gneJ696_2_0" index="0" disallow="pedestrian" speed="13.89" length="14.76" width="3.75" shape="3842.14,9472.34 3832.81,9477.42 3829.50,9479.91"/>
    </edge>
    <edge id=":gneJ696_3" function="internal">
        <lane id=":gneJ696_3_0" index="0" disallow="pedestrian" speed="13.89" length="20.61" width="3.75" shape="3842.14,9472.34 3832.01,9477.24 3825.08,9480.97 3823.96,9481.95"/>
    </edge>
    <edge id=":gneJ696_4" function="internal">
        <lane id=":gneJ696_4_0" index="0" disallow="pedestrian" speed="13.89" length="25.60" width="3.75" shape="3842.14,9472.34 3831.17,9477.07 3823.21,9480.06 3818.89,9482.87"/>
    </edge>
    <edge id=":gneJ696_5" function="internal">
        <lane id=":gneJ696_5_0" index="0" disallow="pedestrian" speed="13.89" length="40.49" width="3.75" shape="3842.14,9472.34 3831.40,9477.65 3823.64,9480.56 3815.49,9481.97 3803.54,9482.77"/>
        <lane id=":gneJ696_5_1" index="1" disallow="pedestrian" speed="13.89" length="40.49" width="3.75" shape="3840.78,9468.82 3830.04,9474.10 3822.28,9476.96 3814.11,9478.32 3802.16,9479.09"/>
        <lane id=":gneJ696_5_2" index="2" disallow="pedestrian" speed="13.89" length="40.49" width="3.75" shape="3839.43,9465.31 3828.69,9470.56 3820.91,9473.36 3812.73,9474.66 3800.79,9475.41"/>
    </edge>
    <edge id=":gneJ696_8" function="internal">
        <lane id=":gneJ696_8_0" index="0" disallow="pedestrian" speed="13.89" length="21.32" width="3.75" shape="3829.50,9479.91 3826.93,9481.85 3822.16,9487.54 3816.17,9496.38"/>
    </edge>
    <edge id=":gneJ696_9" function="internal">
        <lane id=":gneJ696_9_0" index="0" disallow="pedestrian" speed="13.89" length="17.21" width="3.75" shape="3823.96,9481.95 3819.31,9486.01 3812.68,9494.84"/>
    </edge>
    <edge id=":gneJ696_10" function="internal">
        <lane id=":gneJ696_10_0" index="0" disallow="pedestrian" speed="13.89" length="14.35" width="3.75" shape="3818.89,9482.87 3816.47,9484.43 3809.20,9493.31"/>
    </edge>
    <edge id=":gneJ697_0" function="internal">
        <lane id=":gneJ697_0_0" index="0" allow="bicycle" speed="13.89" length="33.79" width="3.00" shape="3771.40,9496.00 3765.54,9488.08 3760.37,9483.61 3754.13,9480.33 3745.07,9475.98"/>
    </edge>
    <edge id=":gneJ697_1" function="internal">
        <lane id=":gneJ697_1_0" index="0" disallow="pedestrian" speed="13.89" length="37.19" width="3.75" shape="3775.28,9494.39 3768.88,9485.61 3763.31,9480.52 3756.57,9476.74 3746.65,9471.88"/>
    </edge>
    <edge id=":gneJ697_2" function="internal">
        <lane id=":gneJ697_2_0" index="0" disallow="pedestrian" speed="13.89" length="40.29" width="3.75" shape="3778.84,9492.99 3771.94,9483.44 3765.97,9477.84 3758.73,9473.66 3748.01,9468.36"/>
    </edge>
    <edge id=":gneJ697_3" function="internal">
        <lane id=":gneJ697_3_0" index="0" allow="bicycle" speed="13.89" length="39.89" width="3.00" shape="3782.90,9486.97 3771.16,9486.07 3763.19,9484.44 3755.62,9481.32 3745.07,9475.98"/>
        <lane id=":gneJ697_3_1" index="1" disallow="pedestrian" speed="13.89" length="39.89" width="3.75" shape="3784.51,9482.68 3772.77,9481.81 3764.79,9480.24 3757.20,9477.19 3746.65,9471.88"/>
        <lane id=":gneJ697_3_2" index="2" disallow="pedestrian" speed="13.89" length="39.89" width="3.75" shape="3785.89,9479.00 3774.15,9478.16 3766.16,9476.64 3758.56,9473.64 3748.01,9468.36"/>
        <lane id=":gneJ697_3_3" index="3" disallow="pedestrian" speed="13.89" length="39.89" width="3.75" shape="3787.27,9475.32 3775.53,9474.50 3767.53,9473.04 3759.92,9470.10 3749.37,9464.84"/>
    </edge>
    <edge id=":gneJ702_0" function="internal">
        <lane id=":gneJ702_0_0" index="0" allow="bicycle" speed="13.89" length="29.53" width="2.00" shape="3690.56,9419.17 3686.91,9411.40 3683.15,9406.78 3678.33,9402.89 3671.52,9397.32"/>
    </edge>
    <edge id=":gneJ702_1" function="internal">
        <lane id=":gneJ702_1_0" index="0" allow="bicycle" speed="13.89" length="37.37" width="3.00" shape="3690.56,9419.17 3686.48,9408.86 3683.93,9401.64 3682.45,9394.20 3681.57,9383.20"/>
    </edge>
    <edge id=":gneJ702_2" function="internal">
        <lane id=":gneJ702_2_0" index="0" disallow="pedestrian" speed="13.89" length="11.97" width="3.75" shape="3694.64,9417.60 3690.62,9408.99 3689.04,9407.09"/>
    </edge>
    <edge id=":gneJ702_3" function="internal">
        <lane id=":gneJ702_3_0" index="0" disallow="pedestrian" speed="13.89" length="17.35" width="3.75" shape="3694.64,9417.60 3690.80,9408.13 3687.22,9401.96"/>
    </edge>
    <edge id=":gneJ702_4" function="internal">
        <lane id=":gneJ702_4_0" index="0" disallow="pedestrian" speed="13.89" length="22.07" width="3.75" shape="3694.64,9417.60 3690.97,9407.23 3688.10,9400.00 3686.14,9397.35"/>
    </edge>
    <edge id=":gneJ702_5" function="internal">
        <lane id=":gneJ702_5_0" index="0" disallow="pedestrian" speed="13.89" length="37.32" width="3.75" shape="3694.64,9417.60 3690.60,9407.28 3688.12,9400.05 3686.71,9392.59 3685.87,9381.60"/>
        <lane id=":gneJ702_5_1" index="1" disallow="pedestrian" speed="13.89" length="37.32" width="3.75" shape="3698.14,9416.25 3694.13,9405.93 3691.71,9398.69 3690.37,9391.22 3689.55,9380.22"/>
        <lane id=":gneJ702_5_2" index="2" disallow="pedestrian" speed="13.89" length="37.32" width="3.75" shape="3701.64,9414.90 3697.66,9404.58 3695.31,9397.33 3694.02,9389.85 3693.24,9378.85"/>
    </edge>
    <edge id=":gneJ702_8" function="internal">
        <lane id=":gneJ702_8_0" index="0" disallow="pedestrian" speed="13.89" length="20.84" width="3.75" shape="3689.04,9407.09 3686.38,9403.89 3680.75,9399.87 3672.58,9394.52"/>
    </edge>
    <edge id=":gneJ702_9" function="internal">
        <lane id=":gneJ702_9_0" index="0" disallow="pedestrian" speed="13.89" length="17.31" width="3.75" shape="3687.22,9401.96 3682.18,9396.93 3673.96,9390.91"/>
    </edge>
    <edge id=":gneJ702_10" function="internal">
        <lane id=":gneJ702_10_0" index="0" disallow="pedestrian" speed="13.89" length="14.86" width="3.75" shape="3686.14,9397.35 3683.66,9394.00 3675.33,9387.30"/>
    </edge>
    <edge id=":gneJ703_0" function="internal">
        <lane id=":gneJ703_0_0" index="0" allow="bicycle" speed="13.89" length="29.36" width="3.00" shape="3672.02,9349.00 3679.42,9344.51 3684.12,9340.65 3687.48,9335.64 3690.86,9327.73"/>
    </edge>
    <edge id=":gneJ703_1" function="internal">
        <lane id=":gneJ703_1_0" index="0" disallow="pedestrian" speed="13.89" length="32.17" width="3.75" shape="3672.99,9351.76 3681.14,9346.88 3686.38,9342.81 3690.42,9337.61 3694.94,9329.31"/>
    </edge>
    <edge id=":gneJ703_2" function="internal">
        <lane id=":gneJ703_2_0" index="0" disallow="pedestrian" speed="13.89" length="35.42" width="3.75" shape="3674.26,9355.36 3683.24,9349.99 3689.02,9345.52 3693.47,9339.80 3698.46,9330.67"/>
    </edge>
    <edge id=":gneJ703_3" function="internal">
        <lane id=":gneJ703_3_0" index="0" disallow="pedestrian" speed="13.89" length="38.68" width="3.75" shape="3675.53,9358.96 3685.33,9353.10 3691.65,9348.23 3696.53,9341.99 3701.98,9332.03"/>
    </edge>
    <edge id=":gneJ703_4" function="internal">
        <lane id=":gneJ703_4_0" index="0" allow="bicycle" speed="13.89" length="36.98" width="3.00" shape="3681.64,9363.14 3682.56,9352.30 3684.14,9344.99 3686.78,9337.90 3690.86,9327.73"/>
        <lane id=":gneJ703_4_1" index="1" disallow="pedestrian" speed="13.89" length="36.98" width="3.75" shape="3685.94,9364.74 3686.59,9353.79 3687.69,9346.29 3690.17,9339.15 3694.94,9329.31"/>
        <lane id=":gneJ703_4_2" index="2" disallow="pedestrian" speed="13.89" length="36.98" width="3.75" shape="3689.62,9366.11 3690.24,9355.17 3691.30,9347.66 3693.72,9340.51 3698.46,9330.67"/>
        <lane id=":gneJ703_4_3" index="3" disallow="pedestrian" speed="13.89" length="36.98" width="3.75" shape="3693.31,9367.49 3693.90,9356.55 3694.90,9349.02 3697.26,9341.87 3701.98,9332.03"/>
    </edge>

    <edge id="gneE240" from="gneJ12" to="gneJ630" priority="-1">
        <lane id="gneE240_0" index="0" allow="pedestrian" speed="13.89" length="108.43" width="2.00" shape="3531.51,9357.93 3639.93,9358.44"/>
        <lane id="gneE240_1" index="1" allow="bicycle" speed="13.89" length="108.43" width="2.00" shape="3531.50,9359.93 3639.92,9360.44"/>
        <lane id="gneE240_2" index="2" disallow="pedestrian" speed="13.89" length="108.43" width="3.75" shape="3531.48,9362.81 3639.91,9363.31"/>
        <lane id="gneE240_3" index="3" disallow="pedestrian" speed="13.89" length="108.43" width="3.75" shape="3531.47,9366.56 3639.89,9367.06"/>
        <lane id="gneE240_4" index="4" disallow="pedestrian" speed="13.89" length="108.43" width="3.75" shape="3531.45,9370.31 3639.87,9370.81"/>
    </edge>
    <edge id="gneE241.54" from="gneJ630" to="gneJ12" priority="-1">
        <lane id="gneE241.54_0" index="0" allow="pedestrian" speed="13.89" length="108.43" width="2.00" shape="3639.80,9386.94 3531.37,9386.43"/>
        <lane id="gneE241.54_1" index="1" allow="bicycle" speed="13.89" length="108.43" width="2.00" shape="3639.81,9384.94 3531.38,9384.43"/>
        <lane id="gneE241.54_2" index="2" disallow="pedestrian" speed="13.89" length="108.43" width="3.75" shape="3639.82,9382.06 3531.40,9381.55"/>
        <lane id="gneE241.54_3" index="3" disallow="pedestrian" speed="13.89" length="108.43" width="3.75" shape="3639.84,9378.31 3531.41,9377.80"/>
        <lane id="gneE241.54_4" index="4" disallow="pedestrian" speed="13.89" length="108.43" width="3.75" shape="3639.86,9374.56 3531.43,9374.05"/>
    </edge>
    <edge id="gneE242.55" from="gneJ635" to="gneJ685" priority="-1">
        <lane id="gneE242.55_0" index="0" allow="pedestrian" speed="13.89" length="55.89" width="4.00" shape="3776.78,9214.05 3777.38,9158.16"/>