<?xml version="1.0" encoding="UTF-8"?>

<!-- generated on 12/28/20 15:21:18 by Eclipse SUMO netedit Version 1.6.0
<configuration xmlns:xsi="http://www.w3.org/2001/XMLSchema-instance" xsi:noNamespaceSchemaLocation="http://sumo.dlr.de/xsd/netconvertConfiguration.xsd">

    <input>
        <sumo-net-file value="C:\hansm\idlab\graduation\simulation\southeast.net.xml"/>
    </input>

    <output>
        <output-file value="C:\hansm\idlab\graduation\simulation\southeast.net.xml"/>
    </output>

    <processing>
        <geometry.min-radius.fix.railways value="false"/>
        <geometry.max-grade.fix value="false"/>
        <offset.disable-normalization value="true"/>
        <lefthand value="false"/>
    </processing>

    <junctions>
        <no-turnarounds value="true"/>
        <junctions.corner-detail value="5"/>
        <junctions.limit-turn-speed value="5.5"/>
        <rectangular-lane-cut value="false"/>
    </junctions>

    <pedestrian>
        <walkingareas value="false"/>
    </pedestrian>

    <report>
        <aggregate-warnings value="5"/>
    </report>

</configuration>
-->

<net version="1.6" junctionCornerDetail="5" limitTurnSpeed="5.50" xmlns:xsi="http://www.w3.org/2001/XMLSchema-instance" xsi:noNamespaceSchemaLocation="http://sumo.dlr.de/xsd/net_file.xsd">

    <location netOffset="-437203.78,-4418435.12" convBoundary="5314.19,0.00,21973.65,13250.21" origBoundary="116.264254,39.914284,116.521519,40.034403" projParameter="+proj=utm +zone=50 +ellps=WGS84 +datum=WGS84 +units=m +no_defs"/>

    <type id="highway.bridleway" priority="1" numLanes="1" speed="2.78" allow="pedestrian" oneway="1" width="2.00"/>
    <type id="highway.bus_guideway" priority="1" numLanes="1" speed="27.78" allow="bus" oneway="1"/>
    <type id="highway.cycleway" priority="1" numLanes="1" speed="8.33" allow="bicycle" oneway="0" width="1.00"/>
    <type id="highway.footway" priority="1" numLanes="1" speed="2.78" allow="pedestrian" oneway="1" width="2.00"/>
    <type id="highway.ford" priority="1" numLanes="1" speed="2.78" allow="army" oneway="0"/>
    <type id="highway.living_street" priority="2" numLanes="1" speed="2.78" disallow="tram rail_urban rail rail_electric ship" oneway="0"/>
    <type id="highway.motorway" priority="14" numLanes="2" speed="39.44" allow="private emergency authority army vip passenger hov taxi bus coach delivery truck trailer motorcycle evehicle custom1 custom2" oneway="1"/>
    <type id="highway.motorway_link" priority="9" numLanes="1" speed="22.22" allow="private emergency authority army vip passenger hov taxi bus coach delivery truck trailer motorcycle evehicle custom1 custom2" oneway="1"/>
    <type id="highway.path" priority="1" numLanes="1" speed="2.78" allow="pedestrian bicycle" oneway="1" width="2.00"/>
    <type id="highway.pedestrian" priority="1" numLanes="1" speed="2.78" allow="pedestrian" oneway="1" width="2.00"/>
    <type id="highway.primary" priority="12" numLanes="2" speed="27.78" disallow="tram rail_urban rail rail_electric ship" oneway="0"/>
    <type id="highway.primary_link" priority="7" numLanes="1" speed="22.22" disallow="tram rail_urban rail rail_electric ship" oneway="0"/>
    <type id="highway.raceway" priority="15" numLanes="2" speed="83.33" allow="vip" oneway="0"/>
    <type id="highway.residential" priority="3" numLanes="1" speed="13.89" disallow="tram rail_urban rail rail_electric ship" oneway="0"/>
    <type id="highway.secondary" priority="11" numLanes="2" speed="27.78" disallow="tram rail_urban rail rail_electric ship" oneway="0"/>
    <type id="highway.secondary_link" priority="6" numLanes="1" speed="22.22" disallow="tram rail_urban rail rail_electric ship" oneway="0"/>
    <type id="highway.service" priority="1" numLanes="1" speed="5.56" allow="pedestrian delivery bicycle" oneway="0"/>
    <type id="highway.stairs" priority="1" numLanes="1" speed="1.39" allow="pedestrian" oneway="1" width="2.00"/>
    <type id="highway.step" priority="1" numLanes="1" speed="1.39" allow="pedestrian" oneway="1" width="2.00"/>
    <type id="highway.steps" priority="1" numLanes="1" speed="1.39" allow="pedestrian" oneway="1" width="2.00"/>
    <type id="highway.tertiary" priority="10" numLanes="1" speed="22.22" disallow="tram rail_urban rail rail_electric ship" oneway="0"/>
    <type id="highway.tertiary_link" priority="5" numLanes="1" speed="22.22" disallow="tram rail_urban rail rail_electric ship" oneway="0"/>
    <type id="highway.track" priority="1" numLanes="1" speed="5.56" disallow="tram rail_urban rail rail_electric ship" oneway="0"/>
    <type id="highway.trunk" priority="13" numLanes="2" speed="27.78" disallow="pedestrian bicycle tram rail_urban rail rail_electric ship" oneway="0"/>
    <type id="highway.trunk_link" priority="8" numLanes="1" speed="22.22" disallow="pedestrian bicycle tram rail_urban rail rail_electric ship" oneway="0"/>
    <type id="highway.unclassified" priority="4" numLanes="1" speed="13.89" disallow="tram rail_urban rail rail_electric ship" oneway="0"/>
    <type id="highway.unsurfaced" priority="1" numLanes="1" speed="8.33" disallow="tram rail_urban rail rail_electric ship" oneway="0"/>
    <type id="railway.highspeed" priority="21" numLanes="1" speed="69.44" allow="rail_electric" oneway="1"/>
    <type id="railway.light_rail" priority="19" numLanes="1" speed="27.78" allow="rail_urban" oneway="1"/>
    <type id="railway.preserved" priority="16" numLanes="1" speed="27.78" allow="rail" oneway="1"/>
    <type id="railway.rail" priority="20" numLanes="1" speed="44.44" allow="rail" oneway="1"/>
    <type id="railway.subway" priority="18" numLanes="1" speed="27.78" allow="rail_urban" oneway="1"/>
    <type id="railway.tram" priority="17" numLanes="1" speed="13.89" allow="tram" oneway="1"/>

    <edge id=":380723121_0" function="internal">
        <lane id=":380723121_0_0" index="0" allow="bicycle" speed="13.89" length="20.93" width="2.00" shape="5369.39,8925.87 5364.99,8921.62 5361.37,8919.27 5357.19,8918.11 5351.07,8917.45"/>
    </edge>
    <edge id=":380723121_1" function="internal">
        <lane id=":380723121_1_0" index="0" allow="bicycle" speed="13.89" length="22.13" width="2.00" shape="5369.39,8925.87 5354.93,8909.12"/>
    </edge>
    <edge id=":380723121_2" function="internal">
        <lane id=":380723121_2_0" index="0" allow="pedestrian" speed="13.89" length="2.73" width="2.00" shape="5371.01,8924.31 5369.05,8922.42"/>
    </edge>
    <edge id=":380723121_3" function="internal">
        <lane id=":380723121_3_0" index="0" allow="pedestrian" speed="13.89" length="22.27" width="2.00" shape="5371.01,8924.31 5356.26,8907.63"/>
    </edge>
    <edge id=":380723121_4" function="internal">
        <lane id=":380723121_4_0" index="0" disallow="pedestrian" speed="13.89" length="9.94" shape="5372.92,8922.47 5368.05,8917.93 5365.23,8916.26"/>
    </edge>
    <edge id=":380723121_5" function="internal">
        <lane id=":380723121_5_0" index="0" disallow="pedestrian" speed="13.89" length="22.51" shape="5374.93,8920.53 5358.00,8905.69"/>
    </edge>
    <edge id=":380723121_9" function="internal">
        <lane id=":380723121_9_0" index="0" allow="pedestrian" speed="13.89" length="19.18" width="2.00" shape="5369.05,8922.42 5366.40,8919.86 5362.62,8917.40 5358.23,8916.20 5351.83,8915.50"/>
    </edge>
    <edge id=":380723121_10" function="internal">
        <lane id=":380723121_10_0" index="0" disallow="pedestrian" speed="13.89" length="12.91" shape="5365.23,8916.26 5364.05,8915.56 5359.45,8914.30 5352.79,8913.04"/>
    </edge>
    <edge id=":380723121_6" function="internal">
        <lane id=":380723121_6_0" index="0" allow="pedestrian" speed="13.89" length="22.92" width="3.00" shape="5363.21,8899.89 5380.77,8914.91"/>
        <lane id=":380723121_6_1" index="1" allow="bicycle" speed="13.89" length="22.92" width="2.00" shape="5361.87,8901.37 5378.97,8916.65"/>
        <lane id=":380723121_6_2" index="2" disallow="pedestrian" speed="13.89" length="22.92" shape="5360.14,8903.31 5377.09,8918.45"/>
    </edge>
    <edge id=":gneJ176_0" function="internal">
        <lane id=":gneJ176_0_0" index="0" allow="pedestrian" speed="13.89" length="33.72" width="2.70" shape="5306.01,8897.67 5309.37,8863.51"/>
        <lane id=":gneJ176_0_1" index="1" allow="bicycle" speed="13.89" length="33.72" width="2.00" shape="5308.01,8897.59 5311.72,8864.68"/>
    </edge>
    <edge id=":gneJ176_2" function="internal">
        <lane id=":gneJ176_2_0" index="0" allow="bicycle" speed="12.67" length="34.83" width="2.00" shape="5308.01,8897.59 5312.69,8884.14 5323.41,8879.64 5332.15,8881.61"/>
    </edge>
    <edge id=":gneJ176_3" function="internal">
        <lane id=":gneJ176_3_0" index="0" disallow="pedestrian" speed="13.89" length="30.24" width="2.50" shape="5310.62,8897.49 5313.97,8865.79"/>
        <lane id=":gneJ176_3_1" index="1" disallow="pedestrian" speed="13.89" length="30.24" shape="5310.62,8897.49 5312.00,8888.53 5314.44,8882.60 5316.78,8876.67 5317.82,8867.70"/>
        <lane id=":gneJ176_3_2" index="2" disallow="pedestrian" speed="13.89" length="30.24" shape="5313.83,8897.36 5315.19,8888.91 5317.64,8883.33 5319.98,8877.75 5321.02,8869.29"/>
        <lane id=":gneJ176_3_3" index="3" disallow="pedestrian" speed="13.89" length="30.24" shape="5313.83,8897.36 5315.69,8889.23 5319.23,8884.12 5322.67,8879.02 5324.22,8870.88"/>
    </edge>
    <edge id=":gneJ176_7" function="internal">
        <lane id=":gneJ176_7_0" index="0" disallow="pedestrian" speed="11.60" length="26.75" shape="5313.83,8897.36 5317.70,8886.47 5326.59,8883.18 5332.12,8884.63"/>
    </edge>
    <edge id=":gneJ176_22" function="internal">
        <lane id=":gneJ176_22_0" index="0" allow="bicycle" speed="12.67" length="22.60" width="2.00" shape="5332.15,8881.61 5337.37,8882.79 5351.76,8892.30"/>
    </edge>
    <edge id=":gneJ176_23" function="internal">
        <lane id=":gneJ176_23_0" index="0" disallow="pedestrian" speed="11.60" length="20.57" shape="5332.12,8884.63 5338.14,8886.20 5350.02,8894.24"/>
    </edge>
    <edge id=":gneJ176_8" function="internal">
        <lane id=":gneJ176_8_0" index="0" allow="bicycle" speed="4.96" length="8.56" width="2.00" shape="5344.82,8900.04 5342.54,8898.39 5341.03,8898.21 5340.28,8899.49 5340.29,8902.23"/>
    </edge>
    <edge id=":gneJ176_9" function="internal">
        <lane id=":gneJ176_9_0" index="0" allow="bicycle" speed="13.89" length="48.74" width="2.00" shape="5344.82,8900.04 5330.34,8886.70 5319.99,8876.35 5313.79,8869.01 5311.72,8864.68"/>
    </edge>
    <edge id=":gneJ176_10" function="internal">
        <lane id=":gneJ176_10_0" index="0" allow="pedestrian" speed="4.90" length="8.33" width="2.00" shape="5346.15,8898.56 5344.13,8897.15 5342.80,8897.19 5342.17,8898.67 5342.23,8901.60"/>
    </edge>
    <edge id=":gneJ176_11" function="internal">
        <lane id=":gneJ176_11_0" index="0" disallow="pedestrian" speed="13.89" length="45.84" width="2.50" shape="5347.89,8896.62 5342.28,8891.66 5330.65,8881.33 5319.17,8870.94 5313.97,8865.79"/>
    </edge>
    <edge id=":gneJ176_12" function="internal">
        <lane id=":gneJ176_12_0" index="0" disallow="pedestrian" speed="13.89" length="35.22" shape="5347.89,8896.62 5337.53,8887.05 5330.14,8879.57 5325.70,8874.18 5324.22,8870.88"/>
    </edge>
    <edge id=":gneJ176_13" function="internal">
        <lane id=":gneJ176_13_0" index="0" allow="pedestrian" speed="12.29" length="15.47" width="2.00" shape="5342.27,8879.84 5342.95,8881.00 5344.98,8883.21 5348.36,8886.48 5353.10,8890.81"/>
    </edge>
    <edge id=":gneJ176_14" function="internal">
        <lane id=":gneJ176_14_0" index="0" allow="pedestrian" speed="13.89" length="21.79" width="2.00" shape="5342.27,8879.84 5342.09,8886.31 5341.80,8890.74 5341.72,8895.17 5342.23,8901.60"/>
    </edge>
    <edge id=":gneJ176_15" function="internal">
        <lane id=":gneJ176_15_0" index="0" allow="bicycle" speed="13.28" length="3.05" width="2.00" shape="5339.92,8878.67 5340.66,8880.65 5341.23,8881.40"/>
    </edge>
    <edge id=":gneJ176_16" function="internal">
        <lane id=":gneJ176_16_0" index="0" allow="bicycle" speed="13.89" length="23.59" width="2.00" shape="5339.92,8878.67 5339.79,8885.68 5339.61,8890.48 5339.68,8895.26 5340.29,8902.23"/>
    </edge>
    <edge id=":gneJ176_17" function="internal">
        <lane id=":gneJ176_17_0" index="0" disallow="pedestrian" speed="13.89" length="8.28" shape="5337.67,8877.56 5338.44,8880.70 5340.76,8884.52 5341.13,8884.96"/>
    </edge>
    <edge id=":gneJ176_18" function="internal">
        <lane id=":gneJ176_18_0" index="0" disallow="pedestrian" speed="13.89" length="26.99" shape="5337.67,8877.56 5337.48,8885.13 5337.18,8890.33 5337.15,8895.51 5337.76,8903.05"/>
        <lane id=":gneJ176_18_1" index="1" disallow="pedestrian" speed="13.89" length="26.99" shape="5333.82,8875.65 5333.73,8884.09 5333.64,8889.88 5333.86,8895.66 5334.65,8904.06"/>
    </edge>
    <edge id=":gneJ176_20" function="internal">
        <lane id=":gneJ176_20_0" index="0" disallow="pedestrian" speed="7.50" length="4.69" width="2.50" shape="5330.62,8874.06 5324.59,8877.53"/>
        <lane id=":gneJ176_20_1" index="1" disallow="pedestrian" speed="5.86" length="4.69" shape="5327.42,8872.47 5325.32,8873.68"/>
    </edge>
    <edge id=":gneJ176_24" function="internal">
        <lane id=":gneJ176_24_0" index="0" allow="bicycle" speed="13.28" length="15.19" width="2.00" shape="5341.23,8881.40 5342.88,8883.58 5346.58,8887.47 5351.76,8892.30"/>
    </edge>
    <edge id=":gneJ176_25" function="internal">
        <lane id=":gneJ176_25_0" index="0" disallow="pedestrian" speed="13.89" length="12.87" shape="5341.13,8884.96 5344.62,8889.04 5350.02,8894.24"/>
    </edge>
    <edge id=":gneJ176_26" function="internal">
        <lane id=":gneJ176_26_0" index="0" disallow="pedestrian" speed="7.50" length="20.18" width="2.50" shape="5324.59,8877.53 5323.36,8878.23 5318.16,8878.25 5315.03,8874.10 5313.97,8865.79"/>
    </edge>
    <edge id=":gneJ176_27" function="internal">
        <lane id=":gneJ176_27_0" index="0" disallow="pedestrian" speed="5.86" length="13.23" shape="5325.32,8873.68 5323.23,8874.88 5320.24,8874.89 5318.43,8872.50 5317.82,8867.70"/>
    </edge>
    <edge id=":gneJ431_0" function="internal">
        <lane id=":gneJ431_0_0" index="0" allow="pedestrian" speed="13.89" length="3.13" width="2.00" shape="5333.40,9028.01 5333.25,9028.91 5332.93,9029.49 5332.61,9030.06 5332.46,9030.96"/>
        <lane id=":gneJ431_0_1" index="1" allow="bicycle" speed="13.89" length="3.13" width="2.00" shape="5331.40,9027.98 5331.25,9028.88 5330.93,9029.46 5330.61,9030.04 5330.46,9030.94"/>
        <lane id=":gneJ431_0_2" index="2" disallow="pedestrian" speed="13.89" length="3.13" width="2.50" shape="5328.80,9027.94 5328.62,9028.85 5328.26,9029.42 5327.89,9030.00 5327.71,9030.90"/>
        <lane id=":gneJ431_0_3" index="3" disallow="pedestrian" speed="13.89" length="3.13" width="2.50" shape="5325.60,9027.89 5325.54,9028.78 5325.41,9029.38 5325.28,9029.98 5325.21,9030.87"/>
    </edge>
    <edge id=":gneJ431_4" function="internal">
        <lane id=":gneJ431_4_0" index="0" allow="pedestrian" speed="13.89" length="3.17" width="2.00" shape="5315.46,9030.76 5315.33,9029.84 5315.03,9029.23 5314.73,9028.63 5314.61,9027.71"/>
        <lane id=":gneJ431_4_1" index="1" allow="bicycle" speed="13.89" length="3.17" width="2.00" shape="5317.46,9030.78 5317.33,9029.86 5317.03,9029.26 5316.73,9028.66 5316.61,9027.74"/>
        <lane id=":gneJ431_4_2" index="2" disallow="pedestrian" speed="13.89" length="3.17" shape="5320.21,9030.82 5320.06,9029.89 5319.71,9029.30 5319.35,9028.71 5319.21,9027.78"/>
        <lane id=":gneJ431_4_3" index="3" disallow="pedestrian" speed="13.89" length="3.17" shape="5322.71,9030.84 5322.67,9029.95 5322.56,9029.34 5322.44,9028.73 5322.40,9027.83"/>
    </edge>
    <edge id=":gneJ443_0" function="internal">
        <lane id=":gneJ443_0_0" index="0" allow="bicycle" speed="5.18" length="5.76" width="2.00" shape="5345.81,8917.24 5343.83,8917.40 5342.43,8917.88 5341.59,8918.67 5341.32,8919.77"/>
    </edge>
    <edge id=":gneJ443_1" function="internal">
        <lane id=":gneJ443_1_0" index="0" allow="pedestrian" speed="5.18" length="5.75" width="2.00" shape="5345.80,8915.24 5344.70,8915.52 5343.92,8916.37 5343.46,8917.78 5343.32,8919.75"/>
    </edge>
    <edge id=":gneJ443_2" function="internal">
        <lane id=":gneJ443_2_0" index="0" allow="bicycle" speed="6.47" length="8.96" width="2.00" shape="5345.80,8913.24 5343.81,8913.65 5342.40,8914.88 5341.57,8916.92 5341.32,8919.77"/>
    </edge>
    <edge id=":gneJ443_3" function="internal">
        <lane id=":gneJ443_3_0" index="0" disallow="pedestrian" speed="7.24" length="11.50" shape="5345.80,8912.64 5342.67,8913.09 5340.45,8914.44 5339.13,8916.67 5338.72,8919.80"/>
    </edge>
    <edge id=":gneJ443_4" function="internal">
        <lane id=":gneJ443_4_0" index="0" allow="pedestrian" speed="13.89" length="10.87" width="2.00" shape="5343.00,8908.53 5343.31,8911.85 5343.37,8914.13 5343.33,8916.42 5343.32,8919.75"/>
        <lane id=":gneJ443_4_1" index="1" allow="bicycle" speed="13.89" length="10.87" width="2.00" shape="5341.02,8908.76 5341.31,8912.01 5341.38,8914.25 5341.33,8916.50 5341.32,8919.77"/>
        <lane id=":gneJ443_4_2" index="2" disallow="pedestrian" speed="13.89" length="10.87" shape="5338.43,8909.05 5338.72,8912.22 5338.78,8914.41 5338.73,8916.60 5338.72,8919.80"/>
        <lane id=":gneJ443_4_3" index="3" disallow="pedestrian" speed="13.89" length="10.87" shape="5335.25,8909.40 5335.53,8912.48 5335.58,8914.60 5335.54,8916.73 5335.52,8919.83"/>
    </edge>

    <edge id="gneE299" from="380723121" to="gneJ176" priority="-1">
        <lane id="gneE299_0" index="0" allow="bicycle" speed="13.89" length="13.58" width="2.00" shape="5354.93,8909.12 5344.82,8900.04"/>
        <lane id="gneE299_1" index="1" allow="pedestrian" speed="13.89" length="13.58" width="2.00" shape="5356.26,8907.63 5346.15,8898.56"/>
        <lane id="gneE299_2" index="2" disallow="pedestrian" speed="13.89" length="13.58" shape="5358.00,8905.69 5347.89,8896.62"/>
    </edge>
    <edge id="gneE300" from="gneJ176" to="380723121" priority="-1">
        <lane id="gneE300_0" index="0" allow="pedestrian" speed="13.89" length="13.59" width="2.00" shape="5353.10,8890.81 5363.21,8899.89"/>
        <lane id="gneE300_1" index="1" allow="bicycle" speed="13.89" length="13.59" width="2.00" shape="5351.76,8892.30 5361.87,8901.37"/>
        <lane id="gneE300_2" index="2" disallow="pedestrian" speed="13.89" length="13.59" shape="5350.02,8894.24 5360.14,8903.31"/>
    </edge>
    <edge id="gneE309.94.14" from="gneJ431" to="gneJ182" priority="-1">
        <lane id="gneE309.94.14_0" index="0" allow="pedestrian" speed="13.89" length="96.75" width="2.00" shape="5332.46,9030.96 5331.33,9127.70"/>
        <lane id="gneE309.94.14_1" index="1" allow="bicycle" speed="13.89" length="96.75" width="2.00" shape="5330.46,9030.94 5329.33,9127.68"/>
        <lane id="gneE309.94.14_2" index="2" disallow="all" speed="13.89" length="96.75" width="0.50" shape="5329.21,9030.92 5328.08,9127.66"/>
        <lane id="gneE309.94.14_3" index="3" disallow="pedestrian" speed="13.89" length="96.75" width="2.50" shape="5327.71,9030.90 5326.58,9127.64"/>
        <lane id="gneE309.94.14_4" index="4" disallow="pedestrian" speed="13.89" length="96.75" width="2.50" shape="5325.21,9030.87 5324.08,9127.61"/>
    </edge>
    <edge id="gneE310" from="gneJ182" to="gneJ431" priority="-1">
        <lane id="gneE310_0" index="0" allow="pedestrian" speed="13.89" length="96.75" width="2.00" shape="5314.33,9127.50 5315.46,9030.76"/>
        <lane id="gneE310_1" index="1" allow="bicycle" speed="13.89" length="96.75" width="2.00" shape="5316.33,9127.52 5317.46,9030.78"/>
        <lane id="gneE310_2" index="2" disallow="all" speed="13.89" length="96.75" width="0.50" shape="5317.58,9127.54 5318.71,9030.80"/>
        <lane id="gneE310_3" index="3" disallow="pedestrian" speed="13.89" length="96.75" width="2.50" shape="5319.08,9127.56 5320.21,9030.82"/>
        <lane id="gneE310_4" index="4" disallow="pedestrian" speed="13.89" length="96.75" width="2.50" shape="5321.58,9127.59 5322.71,9030.84"/>
    </edge>
    <edge id="gneE310.94" from="gneJ431" to="gneJ176" priority="-1" shape="5323.98,9029.36 5324.16,9018.34 5321.10,9011.98 5318.31,9010.56 5316.10,9008.35 5314.68,9005.56 5314.19,9002.47 5314.19,8952.47 5314.19,8947.47 5314.46,8922.14 5315.57,8893.73 5316.83,8886.33 5318.86,8884.32 5325.96,8881.70 5325.82,8874.67">
        <lane id="gneE310.94_0" index="0" allow="pedestrian" speed="13.89" length="133.82" width="2.00" shape="5314.61,9027.71 5314.72,9020.41 5314.01,9018.92 5312.72,9018.26 5308.40,9013.94 5305.63,9008.50 5304.79,9003.21 5304.79,8952.47 5304.79,8947.42 5305.06,8921.91 5306.01,8897.67"/>
        <lane id="gneE310.94_1" index="1" allow="bicycle" speed="13.89" length="133.82" width="2.00" shape="5316.61,9027.74 5316.73,9019.97 5315.52,9017.44 5313.91,9016.62 5310.04,9012.75 5307.55,9007.87 5306.79,9003.05 5306.79,8952.47 5306.79,8947.43 5307.06,8921.96 5308.01,8897.59"/>
        <lane id="gneE310.94_2" index="2" disallow="pedestrian" speed="13.89" length="133.82" shape="5319.21,9027.78 5319.34,9019.40 5317.48,9015.52 5315.45,9014.49 5312.17,9011.21 5310.06,9007.06 5309.39,9002.85 5309.39,8952.47 5309.39,8947.44 5309.66,8922.02 5310.62,8897.49"/>
        <lane id="gneE310.94_3" index="3" disallow="pedestrian" speed="13.89" length="133.82" shape="5322.40,9027.83 5322.55,9018.69 5319.89,9013.16 5317.36,9011.87 5314.79,9009.30 5313.14,9006.06 5312.59,9002.60 5312.59,8952.47 5312.59,8947.46 5312.86,8922.10 5313.83,8897.36"/>
    </edge>
    <edge id="gneE513.143.113" from="gneJ712" to="gneJ176" priority="-1">
        <lane id="gneE513.143.113_0" index="0" allow="pedestrian" speed="13.89" length="38.33" width="2.70" shape="5342.27,8838.09 5342.27,8879.84"/>
        <lane id="gneE513.143.113_1" index="1" allow="bicycle" speed="13.89" length="38.33" width="2.00" shape="5339.92,8838.09 5339.92,8878.67"/>
        <lane id="gneE513.143.113_2" index="2" disallow="pedestrian" speed="13.89" length="38.33" width="2.50" shape="5337.67,8838.09 5337.67,8877.56"/>
        <lane id="gneE513.143.113_3" index="3" disallow="all" speed="13.89" length="38.33" width="1.00" shape="5335.92,8838.09 5335.92,8876.69"/>
        <lane id="gneE513.143.113_4" index="4" disallow="pedestrian" speed="13.89" length="38.33" shape="5333.82,8838.09 5333.82,8875.65"/>
        <lane id="gneE513.143.113_5" index="5" disallow="pedestrian" speed="13.89" length="38.33" shape="5330.62,8838.09 5330.62,8874.06"/>
        <lane id="gneE513.143.113_6" index="6" disallow="pedestrian" speed="13.89" length="38.33" shape="5327.42,8838.09 5327.42,8872.47"/>
    </edge>
    <edge id="gneE514" from="gneJ176" to="gneJ712" priority="-1">
        <lane id="gneE514_0" index="0" allow="pedestrian" speed="13.89" length="28.84" width="2.70" shape="5309.37,8863.51 5309.37,8838.09"/>
        <lane id="gneE514_1" index="1" allow="bicycle" speed="13.89" length="28.84" width="2.00" shape="5311.72,8864.68 5311.72,8838.09"/>
        <lane id="gneE514_2" index="2" disallow="pedestrian" speed="13.89" length="28.84" width="2.50" shape="5313.97,8865.79 5313.97,8838.09"/>
        <lane id="gneE514_3" index="3" disallow="all" speed="13.89" length="28.84" width="1.00" shape="5315.72,8866.66 5315.72,8838.09"/>
        <lane id="gneE514_4" index="4" disallow="pedestrian" speed="13.89" length="28.84" shape="5317.82,8867.70 5317.82,8838.09"/>
        <lane id="gneE514_5" index="5" disallow="pedestrian" speed="13.89" length="28.84" shape="5321.02,8869.29 5321.02,8838.09"/>
        <lane id="gneE514_6" index="6" disallow="pedestrian" speed="13.89" length="28.84" shape="5324.22,8870.88 5324.22,8838.09"/>
    </edge>
    <edge id="gneE656" from="380723121" to="gneJ443" priority="-1" shape="5376.49,8920.13 5356.02,8912.05 5352.42,8911.34 5348.87,8911.03 5333.83,8911.07">
        <lane id="gneE656_0" index="0" allow="bicycle" speed="13.89" length="6.11" width="2.00" shape="5351.07,8917.45 5348.61,8917.23 5345.81,8917.24"/>
        <lane id="gneE656_1" index="1" allow="pedestrian" speed="13.89" length="6.11" width="2.00" shape="5351.83,8915.50 5348.69,8915.23 5345.80,8915.24"/>
        <lane id="gneE656_2" index="2" disallow="pedestrian" speed="13.89" length="6.11" shape="5352.79,8913.04 5352.19,8912.93 5348.80,8912.63 5345.80,8912.64"/>
    </edge>
    <edge id="gneE688" from="gneJ356" to="380723121" priority="-1">
        <lane id="gneE688_0" index="0" allow="bicycle" speed="13.89" length="72.77" width="2.00" shape="5419.88,8978.27 5369.39,8925.87"/>
        <lane id="gneE688_1" index="1" allow="pedestrian" speed="13.89" length="72.77" width="2.50" shape="5421.50,8976.71 5371.01,8924.31"/>
        <lane id="gneE688_2" index="2" disallow="pedestrian" speed="13.89" length="72.77" width="2.80" shape="5423.41,8974.87 5372.92,8922.47"/>
        <lane id="gneE688_3" index="3" disallow="pedestrian" speed="13.89" length="72.77" width="2.80" shape="5425.42,8972.93 5374.93,8920.53"/>
    </edge>
    <edge id="gneE689" from="380723121" to="gneJ356" priority="-1">
        <lane id="gneE689_0" index="0" allow="pedestrian" speed="13.89" length="72.77" width="3.00" shape="5380.77,8914.91 5431.25,8967.31"/>
        <lane id="gneE689_1" index="1" allow="bicycle" speed="13.89" length="72.77" width="2.00" shape="5378.97,8916.65 5429.45,8969.05"/>
        <lane id="gneE689_2" index="2" disallow="pedestrian" speed="13.89" length="72.77" shape="5377.09,8918.45 5427.58,8970.85"/>
    </edge>
    <edge id="gneE739" from="gneJ176" to="gneJ443" priority="-1" shape="5325.82,8874.67 5331.80,8892.94 5333.83,8911.07">
        <lane id="gneE739_0" index="0" allow="pedestrian" speed="13.89" length="6.24" width="2.00" shape="5342.23,8901.60 5343.00,8908.53"/>
        <lane id="gneE739_1" index="1" allow="bicycle" speed="13.89" length="6.24" width="2.00" shape="5340.29,8902.23 5341.02,8908.76"/>
        <lane id="gneE739_2" index="2" disallow="pedestrian" speed="13.89" length="6.24" shape="5337.76,8903.05 5338.43,8909.05"/>
        <lane id="gneE739_3" index="3" disallow="pedestrian" speed="13.89" length="6.24" shape="5334.65,8904.06 5335.25,8909.40"/>
    </edge>
    <edge id="gneE739.42" from="gneJ443" to="gneJ431" priority="-1" shape="5333.83,8911.07 5334.19,8947.47 5334.19,8952.47 5334.19,9002.47 5333.70,9005.56 5332.28,9008.35 5330.07,9010.56 5327.28,9011.98 5324.16,9018.34 5323.98,9029.36">
        <lane id="gneE739.42_0" index="0" allow="pedestrian" speed="13.89" length="111.77" width="2.00" shape="5343.32,8919.75 5343.59,8947.39 5343.59,8952.47 5343.59,9003.21 5342.75,9008.50 5339.98,9013.94 5335.66,9018.26 5334.34,9018.94 5333.52,9020.59 5333.40,9028.01"/>
        <lane id="gneE739.42_1" index="1" allow="bicycle" speed="13.89" length="111.77" width="2.00" shape="5341.32,8919.77 5341.59,8947.41 5341.59,8952.47 5341.59,9003.05 5340.83,9007.87 5338.34,9012.75 5334.47,9016.62 5332.84,9017.46 5331.53,9020.11 5331.40,9027.98"/>
        <lane id="gneE739.42_2" index="2" disallow="pedestrian" speed="13.89" length="111.77" shape="5338.72,8919.80 5338.99,8947.43 5338.99,8952.47 5338.99,9002.85 5338.32,9007.06 5336.21,9011.21 5332.93,9014.49 5330.88,9015.53 5328.94,9019.49 5328.80,9027.94"/>
        <lane id="gneE739.42_3" index="3" disallow="pedestrian" speed="13.89" length="111.77" shape="5335.52,8919.83 5335.79,8947.46 5335.79,8952.47 5335.79,9002.60 5335.24,9006.06 5333.59,9009.30 5331.02,9011.87 5328.48,9013.16 5325.75,9018.72 5325.60,9027.89"/>
    </edge>

    <tlLogic id="380723121" type="static" programID="0" offset="0">
        <phase duration="82" state="GGgGgGGGG"/>
        <phase duration="3"  state="yyyyyyyyy"/>
        <phase duration="5"  state="rrrrrrrrr"/>
    </tlLogic>
    <tlLogic id="gneJ176" type="static" programID="0" offset="0">
        <phase duration="42" state="GGgGGGGgrrrrrGGgGgGGgg"/>
        <phase duration="3"  state="yyyyyyyyrrrrryyyyyyyyy"/>
        <phase duration="42" state="rrrrrrrrGGgGGGrGrGrrrr"/>
        <phase duration="3"  state="rrrrrrrryyyyyyryryrrrr"/>
    </tlLogic>

    <junction id="1074447680" type="dead_end" x="21973.65" y="13246.29" incLanes="" intLanes="" shape="21973.65,13246.29"/>
    <junction id="1352354130" type="dead_end" x="21971.23" y="13250.21" incLanes="" intLanes="" shape="21971.23,13250.21"/>
    <junction id="1366374640" type="dead_end" x="6689.75" y="4477.14" incLanes="" intLanes="" shape="6689.75,4477.14"/>
    <junction id="1660324146" type="dead_end" x="8711.36" y="6.75" incLanes="" intLanes="" shape="8711.36,6.75"/>
    <junction id="1660324147" type="dead_end" x="8728.26" y="0.00" incLanes="" intLanes="" shape="8728.26,0.00"/>
    <junction id="1836104835" type="dead_end" x="15370.30" y="8900.09" incLanes="" intLanes="" shape="15370.30,8900.09"/>
    <junction id="380723121" type="traffic_light" x="5376.49" y="8920.13" incLanes="gneE688_0 gneE688_1 gneE688_2 gneE688_3 gneE300_0 gneE300_1 gneE300_2" intLanes=":380723121_0_0 :380723121_1_0 :380723121_9_0 :380723121_3_0 :380723121_10_0 :380723121_5_0 :380723121_6_0 :380723121_6_1 :380723121_6_2" shape="5368.67,8926.57 5381.85,8913.87 5378.32,8910.41 5375.53,8908.06 5373.08,8906.28 5370.59,8904.55 5367.65,8902.35 5363.88,8899.14 5354.26,8909.86 5353.38,8911.53 5350.69,8918.42 5354.96,8918.82 5358.20,8919.33 5360.80,8920.15 5363.15,8921.49 5365.64,8923.56">
        <request index="0" response="000000000" foes="000000000" cont="0"/>
        <request index="1" response="000000000" foes="000010100" cont="0"/>
        <request index="2" response="000000010" foes="000000010" cont="1"/>
        <request index="3" response="000000000" foes="000010000" cont="0"/>
        <request index="4" response="000001010" foes="000001010" cont="1"/>
        <request index="5" response="000000000" foes="000000000" cont="0"/>
        <request index="6" response="000000000" foes="000000000" cont="0"/>