<?xml version="1.0" encoding="UTF-8"?>

<!-- generated on 01/12/21 18:36:38 by Eclipse SUMO netedit Version 1.6.0
<configuration xmlns:xsi="http://www.w3.org/2001/XMLSchema-instance" xsi:noNamespaceSchemaLocation="http://sumo.dlr.de/xsd/netconvertConfiguration.xsd">

    <input>
        <sumo-net-file value="D:\codecode\2021.01.04\TUmap-2021-01-04\Tsinghua%20Map\Tsinghua%20Map-Part%20D.net.xml"/>
    </input>

    <output>
        <output-file value="D:\codecode\2021.01.04\TUmap-2021-01-04\Tsinghua%20Map\Tsinghua%20Map-Part%20D.net.xml"/>
    </output>

    <processing>
        <geometry.min-radius.fix.railways value="false"/>
        <geometry.max-grade.fix value="false"/>
        <offset.disable-normalization value="true"/>
        <lefthand value="false"/>
    </processing>

    <junctions>
        <no-internal-links value="false"/>
        <no-turnarounds value="true"/>
        <junctions.corner-detail value="5"/>
        <junctions.limit-turn-speed value="5.5"/>
        <rectangular-lane-cut value="false"/>
    </junctions>

    <pedestrian>
        <walkingareas value="false"/>
    </pedestrian>

    <report>
        <aggregate-warnings value="5"/>
    </report>

</configuration>
-->

<net version="1.6" junctionCornerDetail="5" limitTurnSpeed="5.50" xmlns:xsi="http://www.w3.org/2001/XMLSchema-instance" xsi:noNamespaceSchemaLocation="http://sumo.dlr.de/xsd/net_file.xsd">

    <location netOffset="-437203.78,-4418435.12" convBoundary="3529.84,0.00,21973.65,13250.21" origBoundary="116.264254,39.914284,116.521519,40.034403" projParameter="+proj=utm +zone=50 +ellps=WGS84 +datum=WGS84 +units=m +no_defs"/>

    <type id="highway.bridleway" priority="1" numLanes="1" speed="2.78" allow="pedestrian" oneway="1" width="2.00"/>
    <type id="highway.bus_guideway" priority="1" numLanes="1" speed="27.78" allow="bus" oneway="1"/>
    <type id="highway.cycleway" priority="1" numLanes="1" speed="8.33" allow="bicycle" oneway="1" width="1.00"/>
    <type id="highway.footway" priority="1" numLanes="1" speed="2.78" allow="pedestrian" oneway="1" width="2.00"/>
    <type id="highway.ford" priority="1" numLanes="1" speed="2.78" allow="army" oneway="1"/>
    <type id="highway.living_street" priority="2" numLanes="1" speed="2.78" disallow="tram rail_urban rail rail_electric ship" oneway="1"/>
    <type id="highway.motorway" priority="14" numLanes="2" speed="39.44" allow="private emergency authority army vip passenger hov taxi bus coach delivery truck trailer motorcycle evehicle custom1 custom2" oneway="1"/>
    <type id="highway.motorway_link" priority="9" numLanes="1" speed="22.22" allow="private emergency authority army vip passenger hov taxi bus coach delivery truck trailer motorcycle evehicle custom1 custom2" oneway="1"/>
    <type id="highway.path" priority="1" numLanes="1" speed="2.78" allow="pedestrian bicycle" oneway="1" width="2.00"/>
    <type id="highway.pedestrian" priority="1" numLanes="1" speed="2.78" allow="pedestrian" oneway="1" width="2.00"/>
    <type id="highway.primary" priority="12" numLanes="2" speed="27.78" disallow="tram rail_urban rail rail_electric ship" oneway="1"/>
    <type id="highway.primary_link" priority="7" numLanes="1" speed="22.22" disallow="tram rail_urban rail rail_electric ship" oneway="1"/>
    <type id="highway.raceway" priority="15" numLanes="2" speed="83.33" allow="vip" oneway="1"/>
    <type id="highway.residential" priority="3" numLanes="1" speed="13.89" disallow="tram rail_urban rail rail_electric ship" oneway="1"/>
    <type id="highway.secondary" priority="11" numLanes="2" speed="27.78" disallow="tram rail_urban rail rail_electric ship" oneway="1"/>
    <type id="highway.secondary_link" priority="6" numLanes="1" speed="22.22" disallow="tram rail_urban rail rail_electric ship" oneway="1"/>
    <type id="highway.service" priority="1" numLanes="1" speed="5.56" allow="pedestrian delivery bicycle" oneway="1"/>
    <type id="highway.stairs" priority="1" numLanes="1" speed="1.39" allow="pedestrian" oneway="1" width="2.00"/>
    <type id="highway.step" priority="1" numLanes="1" speed="1.39" allow="pedestrian" oneway="1" width="2.00"/>
    <type id="highway.steps" priority="1" numLanes="1" speed="1.39" allow="pedestrian" oneway="1" width="2.00"/>
    <type id="highway.tertiary" priority="10" numLanes="1" speed="22.22" disallow="tram rail_urban rail rail_electric ship" oneway="1"/>
    <type id="highway.tertiary_link" priority="5" numLanes="1" speed="22.22" disallow="tram rail_urban rail rail_electric ship" oneway="1"/>
    <type id="highway.track" priority="1" numLanes="1" speed="5.56" disallow="tram rail_urban rail rail_electric ship" oneway="1"/>
    <type id="highway.trunk" priority="13" numLanes="2" speed="27.78" disallow="pedestrian bicycle tram rail_urban rail rail_electric ship" oneway="1"/>
    <type id="highway.trunk_link" priority="8" numLanes="1" speed="22.22" disallow="pedestrian bicycle tram rail_urban rail rail_electric ship" oneway="1"/>
    <type id="highway.unclassified" priority="4" numLanes="1" speed="13.89" disallow="tram rail_urban rail rail_electric ship" oneway="1"/>
    <type id="highway.unsurfaced" priority="1" numLanes="1" speed="8.33" disallow="tram rail_urban rail rail_electric ship" oneway="1"/>
    <type id="railway.highspeed" priority="21" numLanes="1" speed="69.44" allow="rail_electric" oneway="1"/>
    <type id="railway.light_rail" priority="19" numLanes="1" speed="27.78" allow="rail_urban" oneway="1"/>
    <type id="railway.preserved" priority="16" numLanes="1" speed="27.78" allow="rail" oneway="1"/>
    <type id="railway.rail" priority="20" numLanes="1" speed="44.44" allow="rail" oneway="1"/>
    <type id="railway.subway" priority="18" numLanes="1" speed="27.78" allow="rail_urban" oneway="1"/>
    <type id="railway.tram" priority="17" numLanes="1" speed="13.89" allow="tram" oneway="1"/>

    <edge id=":288191379_0" function="internal">
        <lane id=":288191379_0_0" index="0" allow="pedestrian" speed="13.89" length="11.78" width="2.00" shape="5963.58,7907.00 5964.15,7895.09"/>
        <lane id=":288191379_0_1" index="1" allow="bicycle" speed="13.89" length="11.78" width="2.00" shape="5966.08,7907.00 5966.15,7895.16"/>
        <lane id=":288191379_0_2" index="2" disallow="pedestrian" speed="13.89" length="11.78" shape="5968.68,7907.00 5968.74,7895.25"/>
        <lane id=":288191379_0_3" index="3" disallow="pedestrian" speed="13.89" length="11.78" shape="5971.88,7907.00 5971.94,7895.37"/>
    </edge>
    <edge id=":288191379_4" function="internal">
        <lane id=":288191379_4_0" index="0" allow="pedestrian" speed="4.61" length="4.45" width="3.00" shape="5986.39,7904.52 5985.07,7904.66 5984.13,7905.12 5983.57,7905.90 5983.38,7907.00"/>
    </edge>
    <edge id=":288191379_5" function="internal">
        <lane id=":288191379_5_0" index="0" allow="bicycle" speed="6.29" length="3.91" width="2.00" shape="5986.42,7902.02 5984.00,7902.30 5982.70,7903.00"/>
    </edge>
    <edge id=":288191379_6" function="internal">
        <lane id=":288191379_6_0" index="0" allow="bicycle" speed="9.94" length="17.32" width="2.00" shape="5986.42,7902.02 5977.46,7901.50 5971.10,7900.19 5969.48,7899.28"/>
    </edge>
    <edge id=":288191379_7" function="internal">
        <lane id=":288191379_7_0" index="0" disallow="pedestrian" speed="7.69" length="9.03" shape="5986.45,7898.92 5982.88,7899.39 5980.32,7900.89 5979.05,7903.00"/>
    </edge>
    <edge id=":288191379_8" function="internal">
        <lane id=":288191379_8_0" index="0" disallow="pedestrian" speed="8.30" length="15.64" shape="5986.45,7898.92 5980.06,7898.63 5975.51,7897.95 5972.80,7896.86 5971.94,7895.37"/>
    </edge>
    <edge id=":288191379_13" function="internal">
        <lane id=":288191379_13_0" index="0" allow="bicycle" speed="6.29" length="4.60" width="2.00" shape="5982.70,7903.00 5982.26,7903.23 5981.23,7904.80 5980.88,7907.00"/>
    </edge>
    <edge id=":288191379_14" function="internal">
        <lane id=":288191379_14_0" index="0" allow="bicycle" speed="9.94" length="5.61" width="2.00" shape="5969.48,7899.28 5967.33,7898.07 5966.15,7895.16"/>
    </edge>
    <edge id=":288191379_15" function="internal">
        <lane id=":288191379_15_0" index="0" disallow="pedestrian" speed="7.69" length="4.11" shape="5979.05,7903.00 5978.79,7903.43 5978.28,7907.00"/>
    </edge>
    <edge id=":288191379_9" function="internal">
        <lane id=":288191379_9_0" index="0" allow="pedestrian" speed="13.89" length="11.37" width="3.00" shape="5982.94,7895.75 5983.38,7907.00"/>
        <lane id=":288191379_9_1" index="1" allow="bicycle" speed="13.89" length="11.37" width="2.00" shape="5980.94,7895.68 5980.88,7907.00"/>
        <lane id=":288191379_9_2" index="2" disallow="pedestrian" speed="13.89" length="11.37" shape="5978.34,7895.59 5978.28,7907.00"/>
        <lane id=":288191379_9_3" index="3" disallow="pedestrian" speed="13.89" length="11.37" shape="5975.14,7895.48 5975.08,7907.00"/>
    </edge>
    <edge id=":288191379_c0" function="crossing" crossingEdges="gneE682 gneE680">
        <lane id=":288191379_c0_0" index="0" allow="pedestrian" speed="1.00" length="16.80" width="4.00" shape="5981.88,7905.00 5965.08,7905.00"/>
    </edge>
    <edge id=":288191379_c1" function="crossing" crossingEdges="gneE506 gneE507">
        <lane id=":288191379_c1_0" index="0" allow="pedestrian" speed="1.00" length="16.80" width="4.00" shape="5965.08,7897.13 5981.87,7897.72"/>
    </edge>
    <edge id=":288191379_w0" function="walkingarea">
        <lane id=":288191379_w0_0" index="0" allow="pedestrian" speed="1.00" length="7.41" width="4.00" shape="5965.01,7899.13 5965.15,7895.13 5963.15,7895.06 5962.08,7907.00 5965.08,7907.00 5965.08,7903.00"/>
    </edge>
    <edge id=":288191379_w1" function="walkingarea">
        <lane id=":288191379_w1_0" index="0" allow="pedestrian" speed="1.00" length="3.65" width="4.00" shape="5981.88,7907.00 5984.88,7907.00 5986.38,7905.52 5986.40,7903.52 5985.02,7903.60 5983.89,7903.88 5983.01,7904.36 5982.38,7905.04 5982.01,7905.92"/>
    </edge>
    <edge id=":288191379_w2" function="walkingarea">
        <lane id=":288191379_w2_0" index="0" allow="pedestrian" speed="1.00" length="2.24" width="4.00" shape="5983.93,7895.79 5981.94,7895.72 5982.05,7896.19 5982.42,7896.58 5983.04,7896.89 5983.93,7897.12 5985.07,7897.26"/>
    </edge>
    <edge id=":528891039_0" function="internal">
        <lane id=":528891039_0_0" index="0" allow="pedestrian" speed="13.89" length="14.52" width="2.00" shape="5308.02,8006.83 5307.52,8002.54 5306.42,7999.70 5305.32,7996.85 5304.82,7992.57"/>
        <lane id=":528891039_0_1" index="1" allow="bicycle" speed="13.89" length="14.52" width="2.00" shape="5310.02,8006.83 5309.52,8002.54 5308.42,7999.70 5307.32,7996.85 5306.82,7992.57"/>
        <lane id=":528891039_0_2" index="2" disallow="pedestrian" speed="13.89" length="14.52" shape="5312.62,8006.83 5312.12,8002.54 5311.02,7999.70 5309.92,7996.85 5309.42,7992.57"/>
        <lane id=":528891039_0_3" index="3" disallow="pedestrian" speed="13.89" length="14.52" shape="5317.82,8006.83 5317.32,8002.54 5316.22,7999.70 5315.12,7996.85 5314.62,7992.57"/>
        <lane id=":528891039_0_4" index="4" disallow="pedestrian" speed="13.89" length="14.52" shape="5317.82,8006.83 5317.82,7992.57"/>
        <lane id=":528891039_0_5" index="5" disallow="pedestrian" speed="13.89" length="14.52" shape="5321.02,8006.83 5321.02,7992.57"/>
        <lane id=":528891039_0_6" index="6" disallow="pedestrian" speed="13.89" length="14.52" shape="5324.22,8006.83 5324.22,7992.57"/>
    </edge>
    <edge id=":528891039_7" function="internal">
        <lane id=":528891039_7_0" index="0" allow="pedestrian" speed="4.33" length="4.08" width="2.00" shape="5346.21,8004.48 5345.08,8004.53 5344.27,8004.94 5343.78,8005.70 5343.62,8006.83"/>
    </edge>
    <edge id=":528891039_8" function="internal">
        <lane id=":528891039_8_0" index="0" allow="bicycle" speed="5.87" length="7.54" width="2.00" shape="5346.40,8002.48 5344.31,8002.58 5342.82,8003.34 5341.92,8004.75 5341.62,8006.83"/>
    </edge>
    <edge id=":528891039_9" function="internal">
        <lane id=":528891039_9_0" index="0" disallow="pedestrian tram rail_urban rail rail_electric rail_fast ship" speed="6.79" length="10.51" shape="5346.48,8001.69 5343.22,8001.74 5340.89,8002.61 5339.49,8004.31 5339.02,8006.83"/>
    </edge>
    <edge id=":528891039_10" function="internal">
        <lane id=":528891039_10_0" index="0" disallow="pedestrian tram rail_urban rail rail_electric rail_fast ship" speed="8.06" length="15.36" shape="5346.48,8001.69 5340.94,8001.55 5336.99,8002.36 5334.61,8004.12 5333.82,8006.83"/>
    </edge>
    <edge id=":528891039_11" function="internal">
        <lane id=":528891039_11_0" index="0" allow="pedestrian" speed="5.01" length="4.91" width="2.00" shape="5343.62,7992.57 5343.84,7993.65 5344.49,7994.46 5345.58,7995.02 5347.10,7995.32"/>
    </edge>
    <edge id=":528891039_12" function="internal">
        <lane id=":528891039_12_0" index="0" allow="pedestrian" speed="13.89" length="14.25" width="2.00" shape="5343.62,7992.57 5343.62,8006.83"/>
    </edge>
    <edge id=":528891039_13" function="internal">
        <lane id=":528891039_13_0" index="0" allow="bicycle" speed="6.22" length="7.91" width="3.60" shape="5341.62,7992.57 5341.95,7994.45 5342.94,7995.87 5344.59,7996.82 5346.91,7997.31"/>
    </edge>
    <edge id=":528891039_14" function="internal">
        <lane id=":528891039_14_0" index="0" allow="bicycle" speed="13.89" length="14.25" width="2.00" shape="5341.62,7992.57 5341.62,8006.83"/>
    </edge>
    <edge id=":528891039_15" function="internal">
        <lane id=":528891039_15_0" index="0" disallow="pedestrian tram rail_urban rail rail_electric rail_fast ship" speed="7.23" length="10.55" width="3.60" shape="5339.02,7992.57 5339.51,7994.71 5340.97,7996.34 5343.41,7997.47 5346.83,7998.11"/>
    </edge>
    <edge id=":528891039_16" function="internal">
        <lane id=":528891039_16_0" index="0" disallow="pedestrian" speed="13.89" length="14.86" shape="5339.02,7992.57 5339.02,8006.83"/>
        <lane id=":528891039_16_1" index="1" disallow="pedestrian" speed="13.89" length="14.86" shape="5339.02,7992.57 5338.21,7996.93 5336.42,7999.70 5334.63,8002.46 5333.82,8006.83"/>
    </edge>
    <edge id=":528891039_18" function="internal">
        <lane id=":528891039_18_0" index="0" disallow="pedestrian tram rail_urban rail rail_electric rail_fast ship" speed="8.51" length="15.00" width="3.60" shape="5333.82,7992.57 5334.63,7994.52 5337.07,7996.09 5341.14,7997.29 5346.83,7998.11"/>
    </edge>
    <edge id=":528891039_19" function="internal">
        <lane id=":528891039_19_0" index="0" disallow="pedestrian" speed="13.89" length="14.55" shape="5333.82,7992.57 5334.63,7996.93 5336.42,7999.70 5338.21,8002.46 5339.02,8006.83"/>
        <lane id=":528891039_19_1" index="1" disallow="pedestrian" speed="13.89" length="14.55" shape="5333.82,7992.57 5333.82,8006.83"/>
        <lane id=":528891039_19_2" index="2" disallow="pedestrian" speed="13.89" length="14.55" shape="5330.62,7992.57 5330.62,8006.83"/>
        <lane id=":528891039_19_3" index="3" disallow="pedestrian" speed="13.89" length="14.55" shape="5327.42,7992.57 5327.42,8006.83"/>
    </edge>
    <edge id=":528891039_w0" function="walkingarea">
        <lane id=":528891039_w0_0" index="0" allow="pedestrian" speed="1.00" length="14.61" width="2.00" shape="5305.82,7992.57 5303.82,7992.57 5307.02,8006.83 5309.02,8006.83 5308.78,8003.74 5308.19,8001.51 5307.42,7999.70 5306.65,7997.89 5306.06,7995.66"/>
    </edge>
    <edge id=":528891039_w1" function="walkingarea">
        <lane id=":528891039_w1_0" index="0" allow="pedestrian" speed="1.00" length="3.50" width="2.00" shape="5342.62,8006.83 5344.62,8006.83 5346.11,8005.47 5346.31,8003.48 5345.18,8003.47 5344.26,8003.69 5343.54,8004.14 5343.03,8004.81 5342.72,8005.70"/>
    </edge>
    <edge id=":528891039_w2" function="walkingarea">
        <lane id=":528891039_w2_0" index="0" allow="pedestrian" speed="1.00" length="4.43" width="2.00" shape="5347.00,7996.31 5347.20,7994.32 5344.62,7992.57 5342.62,7992.57 5342.74,7993.60 5343.11,7994.46 5343.72,7995.17 5344.57,7995.71 5345.66,7996.09"/>
    </edge>
    <edge id=":528891043_0" function="internal">
        <lane id=":528891043_0_0" index="0" allow="pedestrian" speed="11.08" length="12.32" width="2.00" shape="5705.44,8049.64 5704.00,8047.36 5702.32,8046.38 5700.19,8045.82 5697.42,8044.81"/>
        <lane id=":528891043_0_1" index="1" allow="bicycle" speed="12.38" length="12.32" width="3.60" shape="5708.65,8048.26 5706.87,8045.39 5704.80,8044.13 5702.18,8043.39 5698.73,8042.11"/>
        <lane id=":528891043_0_2" index="2" disallow="pedestrian tram rail_urban rail rail_electric rail_fast ship" speed="13.63" length="12.32" width="3.60" shape="5711.96,8046.83 5709.60,8043.83 5706.64,8043.29 5703.01,8043.38 5698.65,8042.29"/>
    </edge>
    <edge id=":528891043_3" function="internal">
        <lane id=":528891043_3_0" index="0" allow="pedestrian" speed="16.34" length="19.76" width="3.00" shape="5701.45,8036.52 5707.81,8037.94 5713.28,8037.63 5717.83,8038.34 5721.41,8042.77"/>
        <lane id=":528891043_3_1" index="1" allow="bicycle" speed="15.57" length="19.76" width="4.00" shape="5700.14,8039.22 5706.02,8040.46 5710.96,8039.95 5715.01,8040.31 5718.20,8044.15"/>
        <lane id=":528891043_3_2" index="2" disallow="pedestrian tram rail_urban rail rail_electric rail_fast ship" speed="14.35" length="19.76" shape="5700.23,8039.03 5705.14,8040.46 5709.10,8040.82 5712.28,8041.92 5714.89,8045.58"/>
    </edge>
    <edge id=":528891043_w0" function="walkingarea">
        <lane id=":528891043_w0_0" index="0" allow="pedestrian" speed="1.00" length="9.36" width="3.00" shape="5697.86,8043.91 5696.99,8045.71 5704.06,8050.23 5706.82,8049.05 5705.77,8047.17 5704.62,8046.10 5703.32,8045.54 5701.79,8045.19 5700.00,8044.74"/>
    </edge>
    <edge id=":528891043_w1" function="walkingarea">
        <lane id=":528891043_w1_0" index="0" allow="pedestrian" speed="1.00" length="20.92" width="3.00" shape="5720.03,8043.36 5722.79,8042.18 5701.88,8035.61 5701.02,8037.42 5705.26,8038.68 5709.07,8038.80 5712.42,8038.54 5715.36,8038.69 5717.89,8040.03"/>
    </edge>
    <edge id=":gneJ144_0" function="internal">
        <lane id=":gneJ144_0_0" index="0" allow="pedestrian" speed="7.46" length="12.24" width="2.00" shape="3785.97,7854.34 3785.61,7850.19 3784.59,7847.20 3782.92,7845.37 3780.58,7844.71"/>
    </edge>
    <edge id=":gneJ144_1" function="internal">
        <lane id=":gneJ144_1_0" index="0" allow="bicycle" speed="8.49" length="15.72" width="2.00" shape="3788.47,7854.33 3787.95,7849.34 3786.47,7845.73 3784.02,7843.52 3780.61,7842.71"/>
    </edge>
    <edge id=":gneJ144_2" function="internal">
        <lane id=":gneJ144_2_0" index="0" allow="bicycle" speed="13.89" length="78.57" width="2.00" shape="3788.47,7854.33 3789.94,7830.57 3793.38,7813.89 3796.87,7798.00 3798.48,7776.60"/>
    </edge>
    <edge id=":gneJ144_3" function="internal">
        <lane id=":gneJ144_3_0" index="0" allow="bicycle" speed="13.89" length="10.91" width="3.00" shape="3788.47,7854.33 3793.63,7844.72"/>
    </edge>
    <edge id=":gneJ144_4" function="internal">
        <lane id=":gneJ144_4_0" index="0" disallow="pedestrian" speed="9.54" length="5.64" shape="3791.47,7854.31 3790.82,7848.71"/>
    </edge>
    <edge id=":gneJ144_5" function="internal">
        <lane id=":gneJ144_5_0" index="0" disallow="pedestrian" speed="13.89" length="78.78" shape="3794.47,7854.29 3795.91,7830.56 3799.28,7813.90 3802.70,7798.01 3804.28,7776.61"/>
        <lane id=":gneJ144_5_1" index="1" disallow="pedestrian" speed="13.89" length="78.78" shape="3794.47,7854.29 3796.41,7830.47 3800.88,7813.82 3805.40,7797.99 3807.48,7776.62"/>
    </edge>
    <edge id=":gneJ144_7" function="internal">
        <lane id=":gneJ144_7_0" index="0" disallow="pedestrian" speed="13.89" length="12.06" shape="3797.47,7854.28 3802.47,7843.31"/>
    </edge>
    <edge id=":gneJ144_8" function="internal">
        <lane id=":gneJ144_8_0" index="0" disallow="pedestrian" speed="11.55" length="11.69" shape="3800.67,7854.26 3799.39,7846.90 3796.96,7843.45"/>
    </edge>
    <edge id=":gneJ144_9" function="internal">
        <lane id=":gneJ144_9_0" index="0" disallow="pedestrian" speed="13.89" length="78.03" shape="3803.67,7854.24 3804.67,7830.60 3807.08,7813.95 3809.54,7798.04 3810.68,7776.63"/>
        <lane id=":gneJ144_9_1" index="1" disallow="pedestrian" speed="13.89" length="78.03" shape="3806.67,7854.23 3807.70,7830.59 3810.18,7813.95 3812.71,7798.05 3813.88,7776.64"/>
    </edge>
    <edge id=":gneJ144_11" function="internal">
        <lane id=":gneJ144_11_0" index="0" disallow="pedestrian" speed="13.89" length="16.81" shape="3811.17,7854.20 3815.19,7841.65 3816.80,7838.39"/>
    </edge>
    <edge id=":gneJ144_12" function="internal">
        <lane id=":gneJ144_12_0" index="0" disallow="pedestrian" speed="13.89" length="18.86" shape="3814.17,7854.18 3817.73,7842.14 3820.41,7836.44"/>
    </edge>
    <edge id=":gneJ144_48" function="internal">
        <lane id=":gneJ144_48_0" index="0" allow="bicycle" speed="13.89" length="73.14" width="3.00" shape="3793.63,7844.72 3795.76,7840.77 3812.51,7819.61 3830.92,7800.17 3843.20,7791.74"/>
    </edge>
    <edge id=":gneJ144_49" function="internal">
        <lane id=":gneJ144_49_0" index="0" disallow="pedestrian" speed="9.54" length="14.47" shape="3790.82,7848.71 3790.76,7848.22 3788.72,7843.83 3785.35,7841.12 3780.64,7840.11"/>
    </edge>
    <edge id=":gneJ144_50" function="internal">
        <lane id=":gneJ144_50_0" index="0" disallow="pedestrian" speed="13.89" length="63.79" shape="3802.47,7843.31 3803.43,7841.21 3817.20,7821.14 3832.52,7802.79 3843.11,7794.84"/>
    </edge>
    <edge id=":gneJ144_51" function="internal">
        <lane id=":gneJ144_51_0" index="0" disallow="pedestrian" speed="11.55" length="18.18" shape="3796.96,7843.45 3795.63,7841.56 3789.40,7838.23 3780.69,7836.91"/>
    </edge>
    <edge id=":gneJ144_52" function="internal">
        <lane id=":gneJ144_52_0" index="0" disallow="pedestrian" speed="13.89" length="48.53" shape="3816.80,7838.39 3824.58,7822.72 3835.23,7805.49 3843.01,7798.04"/>
    </edge>
    <edge id=":gneJ144_53" function="internal">
        <lane id=":gneJ144_53_0" index="0" disallow="pedestrian" speed="13.89" length="42.17" shape="3820.41,7836.44 3826.11,7824.31 3835.70,7808.19 3842.91,7801.24"/>
    </edge>
    <edge id=":gneJ144_13" function="internal">
        <lane id=":gneJ144_13_0" index="0" allow="pedestrian" speed="6.25" length="8.85" width="3.00" shape="3841.32,7852.47 3837.66,7852.49 3835.05,7852.76 3833.49,7853.27 3832.97,7854.03"/>
    </edge>
    <edge id=":gneJ144_14" function="internal">
        <lane id=":gneJ144_14_0" index="0" allow="bicycle" speed="7.46" length="12.90" width="3.00" shape="3841.38,7850.47 3836.38,7850.59 3832.81,7851.24 3830.67,7852.40 3829.97,7854.09"/>
    </edge>
    <edge id=":gneJ144_15" function="internal">
        <lane id=":gneJ144_15_0" index="0" allow="bicycle" speed="13.89" length="61.35" width="2.00" shape="3841.38,7850.47 3822.48,7849.05 3808.88,7846.60 3796.34,7844.15 3780.61,7842.71"/>
    </edge>
    <edge id=":gneJ144_16" function="internal">
        <lane id=":gneJ144_16_0" index="0" allow="bicycle" speed="13.89" length="86.02" width="2.00" shape="3841.38,7850.47 3831.85,7840.11 3817.41,7816.81 3804.23,7791.87 3798.48,7776.60"/>
    </edge>
    <edge id=":gneJ144_17" function="internal">
        <lane id=":gneJ144_17_0" index="0" disallow="pedestrian" speed="8.73" length="5.22" shape="3841.46,7847.88 3836.25,7848.08"/>
    </edge>
    <edge id=":gneJ144_18" function="internal">
        <lane id=":gneJ144_18_0" index="0" disallow="pedestrian" speed="13.89" length="61.14" shape="3841.56,7844.68 3780.64,7840.11"/>
        <lane id=":gneJ144_18_1" index="1" disallow="pedestrian" speed="13.89" length="61.14" shape="3841.66,7841.48 3780.69,7836.91"/>
        <lane id=":gneJ144_18_2" index="2" disallow="pedestrian" speed="13.89" length="61.14" shape="3841.76,7838.28 3780.74,7833.71"/>
    </edge>
    <edge id=":gneJ144_21" function="internal">
        <lane id=":gneJ144_21_0" index="0" disallow="pedestrian" speed="13.89" length="72.88" shape="3841.76,7838.28 3832.98,7829.82 3820.41,7810.72 3809.16,7789.97 3804.28,7776.61"/>
    </edge>
    <edge id=":gneJ144_22" function="internal">
        <lane id=":gneJ144_22_0" index="0" disallow="pedestrian" speed="13.89" length="71.22" shape="3841.76,7838.28 3833.66,7829.83 3822.18,7810.72 3811.92,7789.98 3807.48,7776.62"/>
    </edge>
    <edge id=":gneJ144_23" function="internal">
        <lane id=":gneJ144_23_0" index="0" disallow="pedestrian" speed="13.89" length="66.92" shape="3841.86,7835.08 3834.33,7827.13 3823.91,7809.13 3814.66,7789.49 3810.68,7776.63"/>
    </edge>
    <edge id=":gneJ144_24" function="internal">
        <lane id=":gneJ144_24_0" index="0" disallow="pedestrian" speed="13.89" length="71.25" shape="3841.86,7835.08 3829.60,7831.17 3820.84,7820.12 3815.60,7801.95 3813.88,7776.64"/>
    </edge>
    <edge id=":gneJ144_54" function="internal">
        <lane id=":gneJ144_54_0" index="0" disallow="pedestrian" speed="8.73" length="12.27" shape="3836.25,7848.08 3835.06,7848.13 3830.50,7849.25 3827.77,7851.25 3826.87,7854.11"/>
    </edge>
    <edge id=":gneJ144_25" function="internal">
        <lane id=":gneJ144_25_0" index="0" allow="pedestrian" speed="7.57" length="12.73" width="3.00" shape="3840.88,7776.71 3841.02,7781.95 3841.48,7785.70 3842.23,7787.97 3843.30,7788.74"/>
    </edge>
    <edge id=":gneJ144_26" function="internal">
        <lane id=":gneJ144_26_0" index="0" allow="bicycle" speed="8.59" length="16.58" width="3.00" shape="3838.88,7776.70 3839.14,7783.24 3839.95,7787.92 3841.31,7790.76 3843.20,7791.74"/>
    </edge>
    <edge id=":gneJ144_27" function="internal">
        <lane id=":gneJ144_27_0" index="0" allow="bicycle" speed="13.89" length="78.04" width="3.00" shape="3838.88,7776.70 3837.45,7801.01 3834.35,7818.76 3831.29,7834.82 3829.97,7854.09"/>
    </edge>
    <edge id=":gneJ144_28" function="internal">
        <lane id=":gneJ144_28_0" index="0" allow="bicycle" speed="13.89" length="12.94" width="2.00" shape="3838.88,7776.70 3832.57,7788.00"/>
    </edge>
    <edge id=":gneJ144_29" function="internal">
        <lane id=":gneJ144_29_0" index="0" disallow="pedestrian" speed="9.70" length="18.52" shape="3836.28,7776.70 3836.70,7784.57 3837.98,7790.21 3840.11,7793.64 3840.87,7793.94"/>
    </edge>
    <edge id=":gneJ144_30" function="internal">
        <lane id=":gneJ144_30_0" index="0" disallow="pedestrian" speed="13.89" length="78.16" shape="3833.08,7776.69 3831.57,7801.02 3828.30,7818.79 3825.06,7834.86 3823.67,7854.13"/>
    </edge>
    <edge id=":gneJ144_31" function="internal">
        <lane id=":gneJ144_31_0" index="0" disallow="pedestrian" speed="13.89" length="14.20" shape="3829.88,7776.68 3823.75,7789.49"/>
    </edge>
    <edge id=":gneJ144_32" function="internal">
        <lane id=":gneJ144_32_0" index="0" disallow="pedestrian" speed="13.89" length="77.74" shape="3826.68,7776.67 3820.47,7854.15"/>
        <lane id=":gneJ144_32_1" index="1" disallow="pedestrian" speed="13.89" length="77.74" shape="3823.48,7776.66 3817.27,7854.17"/>
    </edge>
    <edge id=":gneJ144_34" function="internal">
        <lane id=":gneJ144_34_0" index="0" disallow="pedestrian" speed="13.89" length="15.54" shape="3820.28,7776.65 3815.12,7789.85 3814.43,7791.03"/>
    </edge>
    <edge id=":gneJ144_35" function="internal">
        <lane id=":gneJ144_35_0" index="0" disallow="pedestrian" speed="13.89" length="17.35" shape="3817.08,7776.65 3812.40,7789.34 3810.53,7792.67"/>
    </edge>
    <edge id=":gneJ144_55" function="internal">
        <lane id=":gneJ144_55_0" index="0" allow="bicycle" speed="13.89" length="75.97" width="2.00" shape="3832.57,7788.00 3831.01,7790.80 3813.04,7813.14 3793.43,7833.76 3780.61,7842.71"/>
    </edge>
    <edge id=":gneJ144_56" function="internal">
        <lane id=":gneJ144_56_0" index="0" disallow="pedestrian" speed="9.70" length="2.42" shape="3840.87,7793.94 3843.11,7794.84"/>
    </edge>
    <edge id=":gneJ144_57" function="internal">
        <lane id=":gneJ144_57_0" index="0" disallow="pedestrian" speed="13.89" length="66.95" shape="3823.75,7789.49 3823.33,7790.38 3808.32,7811.82 3791.78,7831.55 3780.64,7840.11"/>
    </edge>
    <edge id=":gneJ144_58" function="internal">
        <lane id=":gneJ144_58_0" index="0" disallow="pedestrian" speed="13.89" length="57.37" shape="3814.43,7791.03 3803.22,7810.20 3789.96,7828.84 3780.69,7836.91"/>
    </edge>
    <edge id=":gneJ144_59" function="internal">
        <lane id=":gneJ144_59_0" index="0" disallow="pedestrian" speed="13.89" length="51.13" shape="3810.53,7792.67 3801.58,7808.59 3789.43,7826.14 3780.74,7833.71"/>
    </edge>
    <edge id=":gneJ144_36" function="internal">
        <lane id=":gneJ144_36_0" index="0" allow="pedestrian" speed="8.28" length="15.90" width="2.00" shape="3781.51,7779.52 3788.06,7779.46 3792.74,7778.95 3795.54,7777.99 3796.48,7776.59"/>
    </edge>
    <edge id=":gneJ144_37" function="internal">
        <lane id=":gneJ144_37_0" index="0" allow="bicycle" speed="9.00" length="18.90" width="2.00" shape="3781.48,7781.52 3788.92,7781.35 3794.23,7780.47 3797.41,7778.89 3798.48,7776.60"/>
    </edge>
    <edge id=":gneJ144_38" function="internal">
        <lane id=":gneJ144_38_0" index="0" allow="bicycle" speed="13.89" length="62.72" width="3.00" shape="3781.48,7781.52 3800.81,7783.31 3814.70,7786.64 3827.42,7789.96 3843.20,7791.74"/>
    </edge>
    <edge id=":gneJ144_39" function="internal">
        <lane id=":gneJ144_39_0" index="0" allow="bicycle" speed="13.89" length="87.93" width="3.00" shape="3781.48,7781.52 3792.15,7791.68 3808.46,7814.53 3823.40,7839.03 3829.97,7854.09"/>
    </edge>
    <edge id=":gneJ144_40" function="internal">