<?xml version="1.0" encoding="UTF-8"?>

<!-- generated on 01/10/21 14:53:25 by Eclipse SUMO netedit Version 1.6.0
<configuration xmlns:xsi="http://www.w3.org/2001/XMLSchema-instance" xsi:noNamespaceSchemaLocation="http://sumo.dlr.de/xsd/netconvertConfiguration.xsd">

    <input>
        <sumo-net-file value="C:\hansm\idlab\graduation\simulation\Tsinghua%20Map-Part%20A.net.xml"/>
    </input>

    <output>
        <output-file value="C:\hansm\idlab\graduation\simulation\Tsinghua%20Map-Part%20A.net.xml"/>
    </output>

    <processing>
        <geometry.min-radius.fix.railways value="false"/>
        <geometry.max-grade.fix value="false"/>
        <offset.disable-normalization value="true"/>
        <lefthand value="false"/>
    </processing>

    <junctions>
        <no-internal-links value="false"/>
        <no-turnarounds value="true"/>
        <junctions.corner-detail value="5"/>
        <junctions.limit-turn-speed value="5.5"/>
        <rectangular-lane-cut value="false"/>
    </junctions>

    <pedestrian>
        <walkingareas value="false"/>
    </pedestrian>

    <report>
        <aggregate-warnings value="5"/>
    </report>

</configuration>
-->

<net version="1.6" junctionCornerDetail="5" limitTurnSpeed="5.50" xmlns:xsi="http://www.w3.org/2001/XMLSchema-instance" xsi:noNamespaceSchemaLocation="http://sumo.dlr.de/xsd/net_file.xsd">

    <location netOffset="-437203.78,-4418435.12" convBoundary="3507.25,0.00,21973.65,13250.21" origBoundary="116.264254,39.914284,116.521519,40.034403" projParameter="+proj=utm +zone=50 +ellps=WGS84 +datum=WGS84 +units=m +no_defs"/>

    <type id="highway.bridleway" priority="1" numLanes="1" speed="2.78" allow="pedestrian" oneway="1" width="2.00"/>
    <type id="highway.bus_guideway" priority="1" numLanes="1" speed="27.78" allow="bus" oneway="1"/>
    <type id="highway.cycleway" priority="1" numLanes="1" speed="8.33" allow="bicycle" oneway="1" width="1.00"/>
    <type id="highway.footway" priority="1" numLanes="1" speed="2.78" allow="pedestrian" oneway="1" width="2.00"/>
    <type id="highway.ford" priority="1" numLanes="1" speed="2.78" allow="army" oneway="1"/>
    <type id="highway.living_street" priority="2" numLanes="1" speed="2.78" disallow="tram rail_urban rail rail_electric ship" oneway="1"/>
    <type id="highway.motorway" priority="14" numLanes="2" speed="39.44" allow="private emergency authority army vip passenger hov taxi bus coach delivery truck trailer motorcycle evehicle custom1 custom2" oneway="1"/>
    <type id="highway.motorway_link" priority="9" numLanes="1" speed="22.22" allow="private emergency authority army vip passenger hov taxi bus coach delivery truck trailer motorcycle evehicle custom1 custom2" oneway="1"/>
    <type id="highway.path" priority="1" numLanes="1" speed="2.78" allow="pedestrian bicycle" oneway="1" width="2.00"/>
    <type id="highway.pedestrian" priority="1" numLanes="1" speed="2.78" allow="pedestrian" oneway="1" width="2.00"/>
    <type id="highway.primary" priority="12" numLanes="2" speed="27.78" disallow="tram rail_urban rail rail_electric ship" oneway="1"/>
    <type id="highway.primary_link" priority="7" numLanes="1" speed="22.22" disallow="tram rail_urban rail rail_electric ship" oneway="1"/>
    <type id="highway.raceway" priority="15" numLanes="2" speed="83.33" allow="vip" oneway="1"/>
    <type id="highway.residential" priority="3" numLanes="1" speed="13.89" disallow="tram rail_urban rail rail_electric ship" oneway="1"/>
    <type id="highway.secondary" priority="11" numLanes="2" speed="27.78" disallow="tram rail_urban rail rail_electric ship" oneway="1"/>
    <type id="highway.secondary_link" priority="6" numLanes="1" speed="22.22" disallow="tram rail_urban rail rail_electric ship" oneway="1"/>
    <type id="highway.service" priority="1" numLanes="1" speed="5.56" allow="pedestrian delivery bicycle" oneway="1"/>
    <type id="highway.stairs" priority="1" numLanes="1" speed="1.39" allow="pedestrian" oneway="1" width="2.00"/>
    <type id="highway.step" priority="1" numLanes="1" speed="1.39" allow="pedestrian" oneway="1" width="2.00"/>
    <type id="highway.steps" priority="1" numLanes="1" speed="1.39" allow="pedestrian" oneway="1" width="2.00"/>
    <type id="highway.tertiary" priority="10" numLanes="1" speed="22.22" disallow="tram rail_urban rail rail_electric ship" oneway="1"/>
    <type id="highway.tertiary_link" priority="5" numLanes="1" speed="22.22" disallow="tram rail_urban rail rail_electric ship" oneway="1"/>
    <type id="highway.track" priority="1" numLanes="1" speed="5.56" disallow="tram rail_urban rail rail_electric ship" oneway="1"/>
    <type id="highway.trunk" priority="13" numLanes="2" speed="27.78" disallow="pedestrian bicycle tram rail_urban rail rail_electric ship" oneway="1"/>
    <type id="highway.trunk_link" priority="8" numLanes="1" speed="22.22" disallow="pedestrian bicycle tram rail_urban rail rail_electric ship" oneway="1"/>
    <type id="highway.unclassified" priority="4" numLanes="1" speed="13.89" disallow="tram rail_urban rail rail_electric ship" oneway="1"/>
    <type id="highway.unsurfaced" priority="1" numLanes="1" speed="8.33" disallow="tram rail_urban rail rail_electric ship" oneway="1"/>
    <type id="railway.highspeed" priority="21" numLanes="1" speed="69.44" allow="rail_electric" oneway="1"/>
    <type id="railway.light_rail" priority="19" numLanes="1" speed="27.78" allow="rail_urban" oneway="1"/>
    <type id="railway.preserved" priority="16" numLanes="1" speed="27.78" allow="rail" oneway="1"/>
    <type id="railway.rail" priority="20" numLanes="1" speed="44.44" allow="rail" oneway="1"/>
    <type id="railway.subway" priority="18" numLanes="1" speed="27.78" allow="rail_urban" oneway="1"/>
    <type id="railway.tram" priority="17" numLanes="1" speed="13.89" allow="tram" oneway="1"/>

    <edge id=":245133700_0" function="internal">
        <lane id=":245133700_0_0" index="0" allow="pedestrian" speed="4.82" length="4.66" width="2.00" shape="4960.81,9120.74 4959.38,9120.83 4958.33,9121.25 4957.65,9121.99 4957.35,9123.04"/>
    </edge>
    <edge id=":245133700_1" function="internal">
        <lane id=":245133700_1_0" index="0" allow="bicycle" speed="6.07" length="7.75" width="2.00" shape="4960.88,9118.74 4958.62,9118.92 4956.95,9119.67 4955.86,9120.98 4955.36,9122.85"/>
    </edge>
    <edge id=":245133700_2" function="internal">
        <lane id=":245133700_2_0" index="0" allow="bicycle" speed="10.42" length="25.96" width="2.00" shape="4960.88,9118.74 4953.51,9117.48 4948.42,9114.38 4945.61,9109.43 4945.07,9102.63"/>
    </edge>
    <edge id=":245133700_3" function="internal">
        <lane id=":245133700_3_0" index="0" disallow="pedestrian" speed="8.02" length="13.63" width="4.00" shape="4961.02,9115.14 4957.08,9115.47 4954.16,9116.80 4952.26,9119.13 4951.38,9122.47"/>
    </edge>
    <edge id=":245133700_4" function="internal">
        <lane id=":245133700_4_0" index="0" disallow="pedestrian" speed="9.20" length="19.65" width="4.00" shape="4961.02,9115.14 4955.45,9114.19 4951.59,9111.84 4949.46,9108.09 4949.06,9102.94"/>
    </edge>
    <edge id=":245133700_5" function="internal">
        <lane id=":245133700_5_0" index="0" allow="pedestrian" speed="4.39" length="4.05" width="2.00" shape="4959.03,9103.72 4959.10,9104.83 4959.51,9105.64 4960.27,9106.14 4961.37,9106.35"/>
    </edge>
    <edge id=":245133700_6" function="internal">
        <lane id=":245133700_6_0" index="0" allow="bicycle" speed="5.73" length="2.50" width="2.00" shape="4957.03,9103.56 4957.16,9105.59 4957.38,9106.00"/>
    </edge>
    <edge id=":245133700_7" function="internal">
        <lane id=":245133700_7_0" index="0" allow="bicycle" speed="13.89" length="19.36" width="2.00" shape="4957.03,9103.56 4955.36,9122.85"/>
    </edge>
    <edge id=":245133700_8" function="internal">
        <lane id=":245133700_8_0" index="0" disallow="pedestrian" speed="7.83" length="6.28" shape="4953.04,9103.25 4953.31,9106.93 4954.53,9109.21"/>
    </edge>
    <edge id=":245133700_9" function="internal">
        <lane id=":245133700_9_0" index="0" disallow="pedestrian" speed="13.89" length="19.29" width="4.00" shape="4953.04,9103.25 4951.38,9122.47"/>
    </edge>
    <edge id=":245133700_15" function="internal">
        <lane id=":245133700_15_0" index="0" allow="bicycle" speed="5.73" length="4.87" width="2.00" shape="4957.38,9106.00 4957.92,9107.06 4959.29,9107.98 4961.29,9108.34"/>
    </edge>
    <edge id=":245133700_16" function="internal">
        <lane id=":245133700_16_0" index="0" disallow="pedestrian" speed="7.83" length="7.40" shape="4954.53,9109.21 4954.75,9109.60 4957.36,9111.27 4961.15,9111.94"/>
    </edge>
    <edge id=":245133700_10" function="internal">
        <lane id=":245133700_10_0" index="0" allow="pedestrian" speed="13.89" length="19.12" width="2.00" shape="4941.42,9121.51 4943.07,9102.47"/>
        <lane id=":245133700_10_1" index="1" allow="bicycle" speed="13.89" length="19.12" width="2.00" shape="4943.41,9121.70 4945.07,9102.63"/>
    </edge>
    <edge id=":245133700_12" function="internal">
        <lane id=":245133700_12_0" index="0" allow="bicycle" speed="10.63" length="13.84" width="2.00" shape="4943.41,9121.70 4945.04,9115.61 4948.56,9111.36 4950.40,9110.54"/>
    </edge>
    <edge id=":245133700_13" function="internal">
        <lane id=":245133700_13_0" index="0" disallow="pedestrian" speed="13.89" length="19.21" width="4.00" shape="4947.40,9122.08 4949.06,9102.94"/>
    </edge>
    <edge id=":245133700_14" function="internal">
        <lane id=":245133700_14_0" index="0" disallow="pedestrian" speed="9.48" length="6.81" shape="4947.40,9122.08 4948.64,9117.46 4949.94,9115.91"/>
    </edge>
    <edge id=":245133700_17" function="internal">
        <lane id=":245133700_17_0" index="0" allow="bicycle" speed="10.63" length="11.25" width="2.00" shape="4950.40,9110.54 4953.98,9108.94 4961.29,9108.34"/>
    </edge>
    <edge id=":245133700_18" function="internal">
        <lane id=":245133700_18_0" index="0" disallow="pedestrian" speed="9.48" length="12.40" shape="4949.94,9115.91 4951.35,9114.23 4955.52,9112.39 4961.15,9111.94"/>
    </edge>
    <edge id=":245133700_c0" function="crossing" crossingEdges="gneE317 gneE318">
        <lane id=":245133700_c0_0" index="0" allow="pedestrian" speed="1.00" length="12.40" width="4.00" shape="4959.33,9107.27 4958.85,9119.66"/>
    </edge>
    <edge id=":245133700_c1" function="crossing" crossingEdges="gneE316 gneE30.236">
        <lane id=":245133700_c1_0" index="0" allow="pedestrian" speed="1.00" length="14.00" width="4.00" shape="4943.92,9104.55 4957.87,9105.63"/>
    </edge>
    <edge id=":245133700_c2" function="crossing" crossingEdges="gneE328 gneE329">
        <lane id=":245133700_c2_0" index="0" allow="pedestrian" speed="1.00" length="14.00" width="4.00" shape="4956.55,9120.96 4942.61,9119.61"/>
    </edge>
    <edge id=":245133700_w0" function="walkingarea">
        <lane id=":245133700_w0_0" index="0" allow="pedestrian" speed="1.00" length="3.21" width="4.00" shape="4956.35,9122.95 4958.34,9123.14 4960.77,9121.73 4960.85,9119.74 4959.56,9119.78 4958.49,9120.02 4957.64,9120.46 4957.00,9121.09 4956.57,9121.92"/>
    </edge>
    <edge id=":245133700_w1" function="walkingarea">
        <lane id=":245133700_w1_0" index="0" allow="pedestrian" speed="1.00" length="2.89" width="4.00" shape="4961.33,9107.35 4961.41,9105.35 4960.02,9103.79 4958.03,9103.64 4958.04,9104.73 4958.27,9105.64 4958.71,9106.35 4959.37,9106.87 4960.24,9107.20"/>
    </edge>
    <edge id=":245133700_w2" function="walkingarea">
        <lane id=":245133700_w2_0" index="0" allow="pedestrian" speed="1.00" length="12.16" width="4.00" shape="4943.76,9106.54 4944.07,9102.55 4942.08,9102.40 4940.43,9121.41 4942.42,9121.60 4942.80,9117.62"/>
    </edge>
    <edge id=":371156467_0" function="internal">
        <lane id=":371156467_0_0" index="0" allow="pedestrian" speed="5.22" length="5.64" shape="4389.57,9412.97 4387.99,9413.06 4386.81,9413.61 4386.03,9414.60 4385.64,9416.04"/>
    </edge>
    <edge id=":371156467_1" function="internal">
        <lane id=":371156467_1_0" index="0" allow="pedestrian" speed="13.89" length="12.42" width="2.00" shape="4389.57,9412.97 4377.18,9412.16"/>
    </edge>
    <edge id=":371156467_2" function="internal">
        <lane id=":371156467_2_0" index="0" disallow="pedestrian" speed="6.38" length="3.66" shape="4389.78,9409.97 4388.24,9410.26 4387.04,9411.37 4386.85,9411.79"/>
    </edge>
    <edge id=":371156467_3" function="internal">
        <lane id=":371156467_3_0" index="0" disallow="pedestrian" speed="13.89" length="12.45" width="4.00" shape="4389.78,9409.97 4377.36,9409.17"/>
    </edge>
    <edge id=":371156467_10" function="internal">
        <lane id=":371156467_10_0" index="0" disallow="pedestrian" speed="6.38" length="4.45" shape="4386.85,9411.79 4386.17,9413.30 4385.64,9416.04"/>
    </edge>
    <edge id=":371156467_4" function="internal">
        <lane id=":371156467_4_0" index="0" allow="pedestrian" speed="13.89" length="12.51" width="2.00" shape="4377.78,9402.18 4390.28,9402.99"/>
        <lane id=":371156467_4_1" index="1" disallow="pedestrian" speed="13.89" length="12.51" width="4.00" shape="4377.60,9405.18 4390.07,9405.99"/>
    </edge>
    <edge id=":371156467_6" function="internal">
        <lane id=":371156467_6_0" index="0" disallow="pedestrian" speed="8.27" length="6.46" shape="4377.60,9405.18 4381.56,9406.07 4383.44,9407.56"/>
    </edge>
    <edge id=":371156467_11" function="internal">
        <lane id=":371156467_11_0" index="0" disallow="pedestrian" speed="8.27" length="9.12" shape="4383.44,9407.56 4384.22,9408.17 4385.58,9411.50 4385.64,9416.04"/>
    </edge>
    <edge id=":371156467_7" function="internal">
        <lane id=":371156467_7_0" index="0" allow="pedestrian" speed="4.73" length="4.85" width="2.00" shape="4379.88,9415.38 4379.84,9414.04 4379.38,9413.06 4378.49,9412.43 4377.18,9412.16"/>
    </edge>
    <edge id=":371156467_8" function="internal">
        <lane id=":371156467_8_0" index="0" disallow="pedestrian" speed="6.55" length="9.55" width="4.00" shape="4382.46,9415.68 4382.41,9412.96 4381.54,9410.97 4379.85,9409.71 4377.36,9409.17"/>
    </edge>
    <edge id=":371156467_9" function="internal">
        <lane id=":371156467_9_0" index="0" disallow="pedestrian" speed="8.00" length="13.74" width="4.00" shape="4382.46,9415.68 4383.37,9411.27 4384.94,9408.18 4387.17,9406.42 4390.07,9405.99"/>
    </edge>
    <edge id=":371156467_c0" function="crossing" crossingEdges="gneE346 gneE351">
        <lane id=":371156467_c0_0" index="0" allow="pedestrian" speed="1.00" length="8.00" width="4.00" shape="4388.21,9403.85 4387.65,9411.83"/>
    </edge>
    <edge id=":371156467_c1" function="crossing" crossingEdges="gneE345 gneE344">
        <lane id=":371156467_c1_0" index="0" allow="pedestrian" speed="1.00" length="8.00" width="4.00" shape="4379.23,9411.29 4379.72,9403.30"/>
    </edge>
    <edge id=":371156467_w0" function="walkingarea">
        <lane id=":371156467_w0_0" index="0" allow="pedestrian" speed="1.00" length="3.96" width="4.00" shape="4384.05,9415.86 4387.23,9416.22 4389.50,9413.96 4389.64,9411.97 4388.07,9411.98 4386.75,9412.24 4385.69,9412.76 4384.89,9413.54 4384.34,9414.57"/>
    </edge>
    <edge id=":371156467_w1" function="walkingarea">
        <lane id=":371156467_w1_0" index="0" allow="pedestrian" speed="1.00" length="7.77" width="4.00" shape="4386.22,9403.71 4390.21,9403.99 4390.35,9402.00 4377.84,9401.18 4377.72,9403.18 4381.72,9403.42"/>
    </edge>
    <edge id=":371156467_w2" function="walkingarea">
        <lane id=":371156467_w2_0" index="0" allow="pedestrian" speed="1.00" length="3.53" width="4.00" shape="4377.24,9411.17 4377.12,9413.16 4378.88,9415.27 4380.87,9415.50 4380.90,9414.24 4380.67,9413.20 4380.20,9412.37 4379.46,9411.76 4378.48,9411.36"/>
    </edge>
    <edge id=":371157793_0" function="internal">
        <lane id=":371157793_0_0" index="0" allow="pedestrian" speed="4.98" length="5.10" width="3.00" shape="4876.75,8544.17 4876.90,8545.82 4877.36,8547.01 4878.12,8547.75 4879.19,8548.02"/>
    </edge>
    <edge id=":371157793_1" function="internal">
        <lane id=":371157793_1_0" index="0" allow="bicycle" speed="6.56" length="9.00" width="2.00" shape="4874.25,8544.17 4874.55,8546.88 4875.46,8548.84 4876.98,8550.06 4879.09,8550.52"/>
    </edge>
    <edge id=":371157793_2" function="internal">
        <lane id=":371157793_2_0" index="0" disallow="pedestrian" speed="7.91" length="13.45" shape="4871.15,8544.17 4871.64,8547.97 4873.11,8550.73 4875.56,8552.45 4878.99,8553.12"/>
    </edge>
    <edge id=":371157793_3" function="internal">
        <lane id=":371157793_3_0" index="0" disallow="pedestrian" speed="9.37" length="19.27" shape="4867.95,8544.17 4868.63,8549.77 4870.67,8553.82 4874.07,8556.34 4878.83,8557.32"/>
    </edge>
    <edge id=":371157793_4" function="internal">
        <lane id=":371157793_4_0" index="0" allow="pedestrian" speed="4.74" length="4.47" width="2.00" shape="4853.40,8547.12 4854.52,8546.97 4855.31,8546.43 4855.79,8545.49 4855.95,8544.17"/>
    </edge>
    <edge id=":371157793_5" function="internal">
        <lane id=":371157793_5_0" index="0" allow="pedestrian" speed="13.89" length="25.80" width="3.00" shape="4853.40,8547.12 4879.19,8548.02"/>
    </edge>
    <edge id=":371157793_6" function="internal">
        <lane id=":371157793_6_0" index="0" allow="bicycle" speed="6.16" length="3.41" width="3.00" shape="4853.32,8549.62 4855.57,8549.34 4856.54,8548.73"/>
    </edge>
    <edge id=":371157793_7" function="internal">
        <lane id=":371157793_7_0" index="0" allow="bicycle" speed="13.89" length="25.79" width="2.00" shape="4853.32,8549.62 4879.09,8550.52"/>
    </edge>
    <edge id=":371157793_8" function="internal">
        <lane id=":371157793_8_0" index="0" disallow="pedestrian" speed="7.68" length="3.79" shape="4853.24,8552.22 4856.88,8551.82 4856.99,8551.75"/>
    </edge>
    <edge id=":371157793_9" function="internal">
        <lane id=":371157793_9_0" index="0" disallow="pedestrian" speed="13.89" length="25.99" shape="4853.24,8552.22 4878.99,8553.12"/>
        <lane id=":371157793_9_1" index="1" disallow="pedestrian" speed="13.89" length="25.99" shape="4853.24,8552.22 4860.91,8553.12 4866.04,8554.74 4871.17,8556.37 4878.83,8557.32"/>
    </edge>
    <edge id=":371157793_11" function="internal">
        <lane id=":371157793_11_0" index="0" disallow="pedestrian" speed="9.16" length="7.33" shape="4853.11,8556.42 4858.20,8555.79 4860.07,8554.63"/>
    </edge>
    <edge id=":371157793_12" function="internal">
        <lane id=":371157793_12_0" index="0" disallow="pedestrian" speed="13.89" length="25.89" shape="4853.11,8556.42 4860.82,8556.01 4866.05,8554.74 4871.28,8553.48 4878.99,8553.12"/>
        <lane id=":371157793_12_1" index="1" disallow="pedestrian" speed="13.89" length="25.89" shape="4853.11,8556.42 4878.83,8557.32"/>
        <lane id=":371157793_12_2" index="2" disallow="pedestrian" speed="13.89" length="25.89" shape="4853.01,8559.62 4878.71,8560.51"/>
    </edge>
    <edge id=":371157793_15" function="internal">
        <lane id=":371157793_15_0" index="0" allow="bicycle" speed="6.16" length="5.18" width="3.00" shape="4856.54,8548.73 4857.17,8548.34 4858.13,8546.62 4858.45,8544.17"/>
    </edge>
    <edge id=":371157793_16" function="internal">
        <lane id=":371157793_16_0" index="0" disallow="pedestrian" speed="7.68" length="9.50" shape="4856.99,8551.75 4859.47,8550.34 4861.03,8547.79 4861.55,8544.17"/>
    </edge>
    <edge id=":371157793_17" function="internal">
        <lane id=":371157793_17_0" index="0" disallow="pedestrian" speed="9.16" length="12.07" shape="4860.07,8554.63 4861.84,8553.54 4864.02,8549.67 4864.75,8544.17"/>
    </edge>
    <edge id=":371157793_c0" function="crossing" crossingEdges="gneE160 gneE161.534">
        <lane id=":371157793_c0_0" index="0" allow="pedestrian" speed="1.00" length="18.80" width="4.00" shape="4856.95,8546.17 4875.75,8546.17"/>
    </edge>
    <edge id=":371157793_w0" function="walkingarea">
        <lane id=":371157793_w0_0" index="0" allow="pedestrian" speed="1.00" length="3.57" width="4.00" shape="4879.13,8549.52 4879.25,8546.53 4877.75,8544.17 4875.75,8544.17 4875.84,8545.77 4876.13,8547.09 4876.60,8548.12 4877.25,8548.87 4878.10,8549.34"/>
    </edge>
    <edge id=":371157793_w1" function="walkingarea">
        <lane id=":371157793_w1_0" index="0" allow="pedestrian" speed="1.00" length="3.27" width="4.00" shape="4856.95,8544.17 4854.95,8544.17 4853.45,8545.63 4853.36,8548.62 4854.45,8548.53 4855.35,8548.18 4856.05,8547.57 4856.55,8546.70 4856.85,8545.56"/>
    </edge>
    <edge id=":380418838_0" function="internal">
        <lane id=":380418838_0_0" index="0" allow="pedestrian" speed="4.85" length="4.89" width="2.00" shape="4143.79,9397.95 4142.47,9398.07 4141.49,9398.58 4140.86,9399.50 4140.58,9400.82"/>
    </edge>
    <edge id=":380418838_1" function="internal">
        <lane id=":380418838_1_0" index="0" allow="pedestrian" speed="13.89" length="14.39" width="2.00" shape="4143.79,9397.95 4129.43,9397.01"/>
    </edge>
    <edge id=":380418838_2" function="internal">
        <lane id=":380418838_2_0" index="0" disallow="pedestrian" speed="6.72" length="5.09" shape="4143.97,9394.96 4141.51,9395.19 4139.70,9396.21 4139.41,9396.66"/>
    </edge>
    <edge id=":380418838_3" function="internal">
        <lane id=":380418838_3_0" index="0" disallow="pedestrian" speed="13.89" length="14.36" width="4.00" shape="4143.97,9394.96 4129.64,9394.02"/>
    </edge>
    <edge id=":380418838_10" function="internal">
        <lane id=":380418838_10_0" index="0" disallow="pedestrian" speed="6.72" length="4.28" shape="4139.41,9396.66 4138.53,9398.03 4137.99,9400.63"/>
    </edge>
    <edge id=":380418838_4" function="internal">
        <lane id=":380418838_4_0" index="0" allow="pedestrian" speed="13.89" length="14.31" width="2.00" shape="4130.13,9387.04 4144.39,9387.97"/>
        <lane id=":380418838_4_1" index="1" disallow="pedestrian" speed="13.89" length="14.31" width="4.00" shape="4129.92,9390.03 4144.21,9390.96"/>
    </edge>
    <edge id=":380418838_6" function="internal">
        <lane id=":380418838_6_0" index="0" disallow="pedestrian" speed="8.32" length="6.29" shape="4129.92,9390.03 4133.72,9390.92 4135.59,9392.41"/>
    </edge>
    <edge id=":380418838_11" function="internal">
        <lane id=":380418838_11_0" index="0" disallow="pedestrian" speed="8.32" length="8.89" shape="4135.59,9392.41 4136.33,9392.99 4137.75,9396.23 4137.99,9400.63"/>
    </edge>
    <edge id=":380418838_7" function="internal">
        <lane id=":380418838_7_0" index="0" allow="pedestrian" speed="4.80" length="4.84" width="2.00" shape="4132.21,9400.22 4132.11,9398.89 4131.62,9397.92 4130.72,9397.29 4129.43,9397.01"/>
    </edge>
    <edge id=":380418838_8" function="internal">
        <lane id=":380418838_8_0" index="0" disallow="pedestrian" speed="6.61" length="9.36" width="4.00" shape="4134.80,9400.40 4134.64,9397.76 4133.72,9395.81 4132.06,9394.57 4129.64,9394.02"/>
    </edge>
    <edge id=":380418838_9" function="internal">
        <lane id=":380418838_9_0" index="0" disallow="pedestrian" speed="8.28" length="15.14" width="4.00" shape="4134.80,9400.40 4135.66,9396.08 4137.51,9393.06 4140.36,9391.36 4144.21,9390.96"/>
    </edge>
    <edge id=":380418838_c0" function="crossing" crossingEdges="gneE344 gneE345">
        <lane id=":380418838_c0_0" index="0" allow="pedestrian" speed="1.00" length="8.00" width="4.00" shape="4142.34,9388.85 4141.85,9396.83"/>
    </edge>
    <edge id=":380418838_c1" function="crossing" crossingEdges="gneE343 gneE342.39.96">
        <lane id=":380418838_c1_0" index="0" allow="pedestrian" speed="1.00" length="8.00" width="4.00" shape="4131.49,9396.15 4132.05,9388.17"/>
    </edge>
    <edge id=":380418838_c2" function="crossing" crossingEdges="gneE354 gneE364.232">
        <lane id=":380418838_c2_0" index="0" allow="pedestrian" speed="1.00" length="6.40" width="4.00" shape="4139.73,9398.75 4133.35,9398.29"/>
    </edge>
    <edge id=":380418838_w0" function="walkingarea">
        <lane id=":380418838_w0_0" index="0" allow="pedestrian" speed="1.00" length="3.33" width="4.00" shape="4139.58,9400.75 4141.58,9400.89 4143.72,9398.95 4143.85,9396.96 4142.62,9396.99 4141.61,9397.27 4140.80,9397.78 4140.19,9398.53 4139.78,9399.52"/>
    </edge>
    <edge id=":380418838_w1" function="walkingarea">
        <lane id=":380418838_w1_0" index="0" allow="pedestrian" speed="1.00" length="8.96" width="4.00" shape="4140.34,9388.72 4144.33,9388.97 4144.45,9386.97 4130.20,9386.04 4130.06,9388.03 4134.05,9388.31"/>
    </edge>
    <edge id=":380418838_w2" function="walkingarea">
        <lane id=":380418838_w2_0" index="0" allow="pedestrian" speed="1.00" length="3.30" width="4.00" shape="4129.50,9396.01 4129.36,9398.01 4131.21,9400.14 4133.20,9400.29 4133.18,9399.06 4132.92,9398.04 4132.42,9397.22 4131.68,9396.61 4130.71,9396.21"/>
    </edge>
    <edge id=":380419127_0" function="internal">
        <lane id=":380419127_0_0" index="0" allow="pedestrian" speed="4.80" length="4.84" width="2.00" shape="4106.70,10043.42 4105.38,10043.51 4104.40,10044.00 4103.77,10044.90 4103.50,10046.20"/>
    </edge>
    <edge id=":380419127_1" function="internal">
        <lane id=":380419127_1_0" index="0" disallow="pedestrian" speed="6.79" length="9.70" width="4.00" shape="4106.92,10040.43 4104.27,10040.61 4102.32,10041.60 4101.06,10043.39 4100.50,10045.99"/>
    </edge>
    <edge id=":380419127_2" function="internal">
        <lane id=":380419127_2_0" index="0" disallow="pedestrian" speed="8.48" length="15.39" width="4.00" shape="4106.92,10040.43 4102.60,10039.55 4099.56,10037.65 4097.81,10034.72 4097.34,10030.77"/>
    </edge>
    <edge id=":380419127_3" function="internal">
        <lane id=":380419127_3_0" index="0" allow="pedestrian" speed="4.93" length="5.00" width="2.00" shape="4104.34,10031.05 4104.48,10032.36 4105.04,10033.33 4106.01,10033.96 4107.38,10034.25"/>
    </edge>
    <edge id=":380419127_4" function="internal">
        <lane id=":380419127_4_0" index="0" allow="pedestrian" speed="13.89" length="15.17" width="2.00" shape="4104.34,10031.05 4103.50,10046.20"/>
    </edge>
    <edge id=":380419127_5" function="internal">
        <lane id=":380419127_5_0" index="0" disallow="pedestrian" speed="6.79" length="4.99" shape="4101.34,10030.93 4101.62,10033.35 4102.69,10035.14 4103.09,10035.39"/>
    </edge>
    <edge id=":380419127_6" function="internal">
        <lane id=":380419127_6_0" index="0" disallow="pedestrian" speed="13.89" length="15.09" width="4.00" shape="4101.34,10030.93 4100.50,10045.99"/>
    </edge>
    <edge id=":380419127_10" function="internal">
        <lane id=":380419127_10_0" index="0" disallow="pedestrian" speed="6.79" length="4.41" shape="4103.09,10035.39 4104.55,10036.30 4107.19,10036.84"/>
    </edge>
    <edge id=":380419127_7" function="internal">
        <lane id=":380419127_7_0" index="0" allow="pedestrian" speed="13.89" length="14.93" width="2.00" shape="4093.52,10045.51 4094.34,10030.65"/>
        <lane id=":380419127_7_1" index="1" disallow="pedestrian" speed="13.89" length="14.93" width="4.00" shape="4096.51,10045.72 4097.34,10030.77"/>
    </edge>
    <edge id=":380419127_9" function="internal">
        <lane id=":380419127_9_0" index="0" disallow="pedestrian" speed="8.47" length="6.69" shape="4096.51,10045.72 4097.43,10041.55 4098.86,10039.59"/>
    </edge>
    <edge id=":380419127_11" function="internal">
        <lane id=":380419127_11_0" index="0" disallow="pedestrian" speed="8.47" length="9.16" shape="4098.86,10039.59 4099.51,10038.69 4102.77,10037.12 4107.19,10036.84"/>
    </edge>
    <edge id=":380419127_c0" function="crossing" crossingEdges="gneE366 gneE367">
        <lane id=":380419127_c0_0" index="0" allow="pedestrian" speed="1.00" length="7.20" width="4.00" shape="4105.31,10035.10 4104.78,10042.28"/>
    </edge>
    <edge id=":380419127_c1" function="crossing" crossingEdges="gneE364 gneE354.422">
        <lane id=":380419127_c1_0" index="0" allow="pedestrian" speed="1.00" length="8.00" width="4.00" shape="4095.26,10032.69 4103.26,10033.01"/>
    </edge>
    <edge id=":380419127_c2" function="crossing" crossingEdges="gneE45 gneE46">
        <lane id=":380419127_c2_0" index="0" allow="pedestrian" speed="1.00" length="8.00" width="4.00" shape="4102.64,10044.13 4094.65,10043.58"/>
    </edge>
    <edge id=":380419127_w0" function="walkingarea">
        <lane id=":380419127_w0_0" index="0" allow="pedestrian" speed="1.00" length="3.30" width="4.00" shape="4102.50,10046.13 4104.49,10046.27 4106.63,10044.42 4106.77,10042.43 4105.54,10042.45 4104.52,10042.70 4103.71,10043.20 4103.10,10043.94 4102.69,10044.91"/>
    </edge>
    <edge id=":380419127_w1" function="walkingarea">
        <lane id=":380419127_w1_0" index="0" allow="pedestrian" speed="1.00" length="3.38" width="4.00" shape="4107.31,10035.25 4107.46,10033.25 4105.34,10031.09 4103.34,10031.01 4103.40,10032.22 4103.71,10033.23 4104.25,10034.03 4105.03,10034.64 4106.05,10035.04"/>
    </edge>
    <edge id=":380419127_w2" function="walkingarea">
        <lane id=":380419127_w2_0" index="0" allow="pedestrian" speed="1.00" length="9.36" width="4.00" shape="4095.18,10034.68 4095.34,10030.69 4093.35,10030.61 4092.52,10045.44 4094.52,10045.58 4094.79,10041.59"/>
    </edge>
    <edge id=":6959725348_0" function="internal">
        <lane id=":6959725348_0_0" index="0" allow="pedestrian" speed="5.29" length="5.95" width="2.00" shape="4922.63,9512.68 4920.96,9512.81 4919.74,9513.41 4918.96,9514.49 4918.61,9516.03"/>
    </edge>
    <edge id=":6959725348_1" function="internal">
        <lane id=":6959725348_1_0" index="0" allow="pedestrian" speed="13.89" length="20.91" width="2.00" shape="4922.63,9512.68 4901.72,9512.40"/>
    </edge>
    <edge id=":6959725348_2" function="internal">