<?xml version="1.0" encoding="UTF-8"?>

<!-- generated on 01/12/21 15:10:46 by Eclipse SUMO netedit Version 1.6.0
<configuration xmlns:xsi="http://www.w3.org/2001/XMLSchema-instance" xsi:noNamespaceSchemaLocation="http://sumo.dlr.de/xsd/netconvertConfiguration.xsd">

    <input>
        <sumo-net-file value="D:\codecode\2021.01.04\TUmap-2021-01-04\submap\tumap-20210112.net%20-1.xml"/>
    </input>

    <output>
        <output-file value="D:\codecode\2021.01.04\TUmap-2021-01-04\submap\tumap-20210112.net%20-1.xml"/>
    </output>

    <processing>
        <geometry.min-radius.fix.railways value="false"/>
        <geometry.max-grade.fix value="false"/>
        <offset.disable-normalization value="true"/>
        <lefthand value="false"/>
    </processing>

    <junctions>
        <no-internal-links value="false"/>
        <no-turnarounds value="true"/>
        <junctions.corner-detail value="5"/>
        <junctions.limit-turn-speed value="5.5"/>
        <rectangular-lane-cut value="false"/>
    </junctions>

    <pedestrian>
        <walkingareas value="false"/>
    </pedestrian>

    <report>
        <aggregate-warnings value="5"/>
    </report>

</configuration>
-->

<net version="1.6" junctionCornerDetail="5" limitTurnSpeed="5.50" xmlns:xsi="http://www.w3.org/2001/XMLSchema-instance" xsi:noNamespaceSchemaLocation="http://sumo.dlr.de/xsd/net_file.xsd">

    <location netOffset="-437203.78,-4418435.12" convBoundary="3998.33,0.00,21973.65,13250.21" origBoundary="116.264254,39.914284,116.521519,40.034403" projParameter="+proj=utm +zone=50 +ellps=WGS84 +datum=WGS84 +units=m +no_defs"/>

    <type id="highway.bridleway" priority="1" numLanes="1" speed="2.78" allow="pedestrian" oneway="1" width="2.00"/>
    <type id="highway.bus_guideway" priority="1" numLanes="1" speed="27.78" allow="bus" oneway="1"/>
    <type id="highway.cycleway" priority="1" numLanes="1" speed="8.33" allow="bicycle" oneway="1" width="1.00"/>
    <type id="highway.footway" priority="1" numLanes="1" speed="2.78" allow="pedestrian" oneway="1" width="2.00"/>
    <type id="highway.ford" priority="1" numLanes="1" speed="2.78" allow="army" oneway="1"/>
    <type id="highway.living_street" priority="2" numLanes="1" speed="2.78" disallow="tram rail_urban rail rail_electric ship" oneway="1"/>
    <type id="highway.motorway" priority="14" numLanes="2" speed="39.44" allow="private emergency authority army vip passenger hov taxi bus coach delivery truck trailer motorcycle evehicle custom1 custom2" oneway="1"/>
    <type id="highway.motorway_link" priority="9" numLanes="1" speed="22.22" allow="private emergency authority army vip passenger hov taxi bus coach delivery truck trailer motorcycle evehicle custom1 custom2" oneway="1"/>
    <type id="highway.path" priority="1" numLanes="1" speed="2.78" allow="pedestrian bicycle" oneway="1" width="2.00"/>
    <type id="highway.pedestrian" priority="1" numLanes="1" speed="2.78" allow="pedestrian" oneway="1" width="2.00"/>
    <type id="highway.primary" priority="12" numLanes="2" speed="27.78" disallow="tram rail_urban rail rail_electric ship" oneway="1"/>
    <type id="highway.primary_link" priority="7" numLanes="1" speed="22.22" disallow="tram rail_urban rail rail_electric ship" oneway="1"/>
    <type id="highway.raceway" priority="15" numLanes="2" speed="83.33" allow="vip" oneway="1"/>
    <type id="highway.residential" priority="3" numLanes="1" speed="13.89" disallow="tram rail_urban rail rail_electric ship" oneway="1"/>
    <type id="highway.secondary" priority="11" numLanes="2" speed="27.78" disallow="tram rail_urban rail rail_electric ship" oneway="1"/>
    <type id="highway.secondary_link" priority="6" numLanes="1" speed="22.22" disallow="tram rail_urban rail rail_electric ship" oneway="1"/>
    <type id="highway.service" priority="1" numLanes="1" speed="5.56" allow="pedestrian delivery bicycle" oneway="1"/>
    <type id="highway.stairs" priority="1" numLanes="1" speed="1.39" allow="pedestrian" oneway="1" width="2.00"/>
    <type id="highway.step" priority="1" numLanes="1" speed="1.39" allow="pedestrian" oneway="1" width="2.00"/>
    <type id="highway.steps" priority="1" numLanes="1" speed="1.39" allow="pedestrian" oneway="1" width="2.00"/>
    <type id="highway.tertiary" priority="10" numLanes="1" speed="22.22" disallow="tram rail_urban rail rail_electric ship" oneway="1"/>
    <type id="highway.tertiary_link" priority="5" numLanes="1" speed="22.22" disallow="tram rail_urban rail rail_electric ship" oneway="1"/>
    <type id="highway.track" priority="1" numLanes="1" speed="5.56" disallow="tram rail_urban rail rail_electric ship" oneway="1"/>
    <type id="highway.trunk" priority="13" numLanes="2" speed="27.78" disallow="pedestrian bicycle tram rail_urban rail rail_electric ship" oneway="1"/>
    <type id="highway.trunk_link" priority="8" numLanes="1" speed="22.22" disallow="pedestrian bicycle tram rail_urban rail rail_electric ship" oneway="1"/>
    <type id="highway.unclassified" priority="4" numLanes="1" speed="13.89" disallow="tram rail_urban rail rail_electric ship" oneway="1"/>
    <type id="highway.unsurfaced" priority="1" numLanes="1" speed="8.33" disallow="tram rail_urban rail rail_electric ship" oneway="1"/>
    <type id="railway.highspeed" priority="21" numLanes="1" speed="69.44" allow="rail_electric" oneway="1"/>
    <type id="railway.light_rail" priority="19" numLanes="1" speed="27.78" allow="rail_urban" oneway="1"/>
    <type id="railway.preserved" priority="16" numLanes="1" speed="27.78" allow="rail" oneway="1"/>
    <type id="railway.rail" priority="20" numLanes="1" speed="44.44" allow="rail" oneway="1"/>
    <type id="railway.subway" priority="18" numLanes="1" speed="27.78" allow="rail_urban" oneway="1"/>
    <type id="railway.tram" priority="17" numLanes="1" speed="13.89" allow="tram" oneway="1"/>

    <edge id=":1356404969_w0" function="walkingarea">
        <lane id=":1356404969_w0_0" index="0" allow="pedestrian" speed="1.00" length="18.80" width="2.00" shape="6086.61,8610.46 6086.56,8612.46 6087.02,8591.66 6086.97,8593.66"/>
    </edge>
    <edge id=":1360087390_0" function="internal">
        <lane id=":1360087390_0_0" index="0" allow="pedestrian" speed="6.19" length="3.46" width="2.00" shape="5965.63,9469.33 5965.34,9466.88 5964.89,9465.99"/>
    </edge>
    <edge id=":1360087390_1" function="internal">
        <lane id=":1360087390_1_0" index="0" allow="pedestrian" speed="13.89" length="36.97" width="2.00" shape="5965.63,9469.33 5964.08,9432.39"/>
    </edge>
    <edge id=":1360087390_2" function="internal">
        <lane id=":1360087390_2_0" index="0" allow="bicycle" speed="7.31" length="5.33" width="3.00" shape="5967.63,9469.28 5967.22,9465.78 5966.41,9464.16"/>
    </edge>
    <edge id=":1360087390_3" function="internal">
        <lane id=":1360087390_3_0" index="0" allow="bicycle" speed="13.89" length="36.92" width="2.00" shape="5967.63,9469.28 5966.08,9432.39"/>
    </edge>
    <edge id=":1360087390_4" function="internal">
        <lane id=":1360087390_4_0" index="0" allow="bicycle" speed="13.16" length="29.10" width="2.00" shape="5967.63,9469.28 5970.25,9460.62 5976.63,9450.25 5981.93,9444.42"/>
    </edge>
    <edge id=":1360087390_5" function="internal">
        <lane id=":1360087390_5_0" index="0" disallow="pedestrian" speed="8.62" length="5.40" shape="5970.23,9469.21 5969.66,9464.40 5969.41,9463.90"/>
    </edge>
    <edge id=":1360087390_6" function="internal">
        <lane id=":1360087390_6_0" index="0" disallow="pedestrian" speed="13.89" length="36.96" shape="5973.43,9469.13 5972.69,9458.18 5971.05,9450.76 5969.42,9443.34 5968.68,9432.39"/>
        <lane id=":1360087390_6_1" index="1" disallow="pedestrian" speed="13.89" length="36.96" shape="5973.43,9469.13 5971.88,9432.39"/>
    </edge>
    <edge id=":1360087390_8" function="internal">
        <lane id=":1360087390_8_0" index="0" disallow="pedestrian" speed="11.07" length="9.52" shape="5976.63,9469.05 5977.56,9460.19 5977.81,9459.63"/>
    </edge>
    <edge id=":1360087390_39" function="internal">
        <lane id=":1360087390_39_0" index="0" allow="pedestrian" speed="6.19" length="4.88" width="2.00" shape="5964.89,9465.99 5964.46,9465.12 5962.99,9464.05 5960.94,9463.65"/>
    </edge>
    <edge id=":1360087390_40" function="internal">
        <lane id=":1360087390_40_0" index="0" allow="bicycle" speed="7.31" length="6.54" width="3.00" shape="5966.41,9464.16 5965.97,9463.26 5963.90,9461.72 5960.99,9461.15"/>
    </edge>
    <edge id=":1360087390_41" function="internal">
        <lane id=":1360087390_41_0" index="0" allow="bicycle" speed="13.16" length="11.92" width="2.00" shape="5981.93,9444.42 5984.54,9441.56 5991.74,9437.97"/>
    </edge>
    <edge id=":1360087390_42" function="internal">
        <lane id=":1360087390_42_0" index="0" disallow="pedestrian" speed="8.62" length="10.95" shape="5969.41,9463.90 5967.94,9460.94 5965.07,9458.83 5961.06,9458.06"/>
    </edge>
    <edge id=":1360087390_43" function="internal">
        <lane id=":1360087390_43_0" index="0" disallow="pedestrian" speed="11.07" length="18.92" shape="5977.81,9459.63 5980.37,9453.89 5985.04,9450.15 5991.59,9448.97"/>
    </edge>
    <edge id=":1360087390_9" function="internal">
        <lane id=":1360087390_9_0" index="0" allow="pedestrian" speed="5.05" length="5.48" width="1.00" shape="5991.34,9466.37 5989.49,9466.50 5988.16,9466.94 5987.37,9467.71 5987.10,9468.79"/>
    </edge>
    <edge id=":1360087390_10" function="internal">
        <lane id=":1360087390_10_0" index="0" allow="pedestrian" speed="13.89" length="30.52" width="2.00" shape="5991.34,9466.37 5960.94,9463.65"/>
    </edge>
    <edge id=":1360087390_11" function="internal">
        <lane id=":1360087390_11_0" index="0" allow="bicycle" speed="6.11" length="2.95" width="2.00" shape="5991.37,9464.37 5988.85,9464.62 5988.47,9464.79"/>
    </edge>
    <edge id=":1360087390_12" function="internal">
        <lane id=":1360087390_12_0" index="0" allow="bicycle" speed="13.89" length="30.58" width="3.00" shape="5991.37,9464.37 5982.33,9463.82 5976.18,9462.81 5970.04,9461.77 5960.99,9461.15"/>
    </edge>
    <edge id=":1360087390_13" function="internal">
        <lane id=":1360087390_13_0" index="0" allow="bicycle" speed="13.49" length="4.43" width="2.00" shape="5991.37,9464.37 5987.43,9462.35"/>
    </edge>
    <edge id=":1360087390_14" function="internal">
        <lane id=":1360087390_14_0" index="0" disallow="pedestrian" speed="7.53" length="8.16" shape="5991.41,9461.77 5987.73,9462.17 5985.10,9463.49 5984.23,9464.73"/>
    </edge>
    <edge id=":1360087390_15" function="internal">
        <lane id=":1360087390_15_0" index="0" disallow="pedestrian" speed="13.89" length="30.50" shape="5991.45,9458.57 5961.06,9458.06"/>
        <lane id=":1360087390_15_1" index="1" disallow="pedestrian" speed="13.89" length="30.50" shape="5991.45,9458.57 5982.42,9457.95 5976.29,9456.76 5970.16,9455.54 5961.13,9454.86"/>
    </edge>
    <edge id=":1360087390_17" function="internal">
        <lane id=":1360087390_17_0" index="0" disallow="pedestrian" speed="12.24" length="5.62" shape="5991.50,9455.37 5986.15,9453.62"/>
    </edge>
    <edge id=":1360087390_18" function="internal">
        <lane id=":1360087390_18_0" index="0" disallow="pedestrian" speed="11.79" length="7.28" shape="5991.54,9452.17 5984.34,9451.05"/>
    </edge>
    <edge id=":1360087390_44" function="internal">
        <lane id=":1360087390_44_0" index="0" allow="bicycle" speed="6.11" length="5.36" width="2.00" shape="5988.47,9464.79 5987.04,9465.44 5985.96,9466.85 5985.60,9468.83"/>
    </edge>
    <edge id=":1360087390_45" function="internal">
        <lane id=":1360087390_45_0" index="0" allow="bicycle" speed="13.49" length="37.79" width="2.00" shape="5987.43,9462.35 5983.93,9460.57 5975.62,9451.67 5968.87,9441.12 5966.08,9432.39"/>
    </edge>
    <edge id=":1360087390_46" function="internal">
        <lane id=":1360087390_46_0" index="0" disallow="pedestrian" speed="7.53" length="4.43" shape="5984.23,9464.73 5983.52,9465.73 5983.00,9468.89"/>
    </edge>
    <edge id=":1360087390_47" function="internal">
        <lane id=":1360087390_47_0" index="0" disallow="pedestrian" speed="12.24" length="28.60" shape="5986.15,9453.62 5984.18,9452.98 5976.76,9447.17 5971.00,9439.71 5968.68,9432.39"/>
    </edge>
    <edge id=":1360087390_48" function="internal">
        <lane id=":1360087390_48_0" index="0" disallow="pedestrian" speed="11.79" length="24.42" shape="5984.34,9451.05 5982.94,9450.83 5976.80,9447.09 5973.11,9440.94 5971.88,9432.39"/>
    </edge>
    <edge id=":1360087390_19" function="internal">
        <lane id=":1360087390_19_0" index="0" allow="pedestrian" speed="4.86" length="4.91" width="2.00" shape="5989.28,9432.39 5989.44,9433.94 5989.90,9435.06 5990.68,9435.73 5991.77,9435.97"/>
    </edge>
    <edge id=":1360087390_20" function="internal">
        <lane id=":1360087390_20_0" index="0" allow="pedestrian" speed="13.89" length="36.47" width="1.00" shape="5989.28,9432.39 5987.10,9468.79"/>
    </edge>
    <edge id=":1360087390_21" function="internal">
        <lane id=":1360087390_21_0" index="0" allow="bicycle" speed="6.09" length="2.93" width="2.00" shape="5987.28,9432.39 5987.56,9434.81 5987.78,9435.26"/>
    </edge>
    <edge id=":1360087390_22" function="internal">
        <lane id=":1360087390_22_0" index="0" allow="bicycle" speed="13.89" length="36.48" width="2.00" shape="5987.28,9432.39 5985.60,9468.83"/>
    </edge>
    <edge id=":1360087390_23" function="internal">
        <lane id=":1360087390_23_0" index="0" allow="bicycle" speed="13.07" length="30.53" width="3.00" shape="5987.28,9432.39 5984.42,9440.66 5977.47,9450.18 5970.07,9456.89"/>
    </edge>
    <edge id=":1360087390_24" function="internal">
        <lane id=":1360087390_24_0" index="0" disallow="pedestrian" speed="7.97" length="4.14" shape="5984.68,9432.39 5985.09,9436.51"/>
    </edge>
    <edge id=":1360087390_25" function="internal">
        <lane id=":1360087390_25_0" index="0" disallow="pedestrian" speed="13.89" length="36.58" shape="5981.48,9432.39 5983.00,9468.89"/>
        <lane id=":1360087390_25_1" index="1" disallow="pedestrian" speed="13.89" length="36.58" shape="5978.28,9432.39 5979.80,9468.97"/>
    </edge>
    <edge id=":1360087390_27" function="internal">
        <lane id=":1360087390_27_0" index="0" disallow="pedestrian" speed="10.77" length="9.44" shape="5975.08,9432.39 5974.21,9440.93 5973.88,9441.72"/>
    </edge>
    <edge id=":1360087390_49" function="internal">
        <lane id=":1360087390_49_0" index="0" allow="bicycle" speed="6.09" length="5.16" width="2.00" shape="5987.78,9435.26 5988.39,9436.54 5989.79,9437.60 5991.74,9437.97"/>
    </edge>
    <edge id=":1360087390_50" function="internal">
        <lane id=":1360087390_50_0" index="0" allow="bicycle" speed="13.07" length="10.11" width="3.00" shape="5970.07,9456.89 5968.85,9457.99 5960.99,9461.15"/>
    </edge>
    <edge id=":1360087390_51" function="internal">
        <lane id=":1360087390_51_0" index="0" disallow="pedestrian" speed="7.97" length="9.77" shape="5985.09,9436.51 5985.12,9436.81 5986.43,9439.98 5988.61,9441.90 5991.67,9442.57"/>
    </edge>
    <edge id=":1360087390_52" function="internal">
        <lane id=":1360087390_52_0" index="0" disallow="pedestrian" speed="10.77" length="17.53" shape="5973.88,9441.72 5971.61,9446.99 5967.27,9450.56 5961.20,9451.66"/>
    </edge>
    <edge id=":1360087390_28" function="internal">
        <lane id=":1360087390_28_0" index="0" allow="pedestrian" speed="4.41" length="4.05" width="2.00" shape="5961.56,9434.86 5962.66,9434.73 5963.45,9434.27 5963.92,9433.49 5964.08,9432.39"/>
    </edge>
    <edge id=":1360087390_29" function="internal">
        <lane id=":1360087390_29_0" index="0" allow="pedestrian" speed="13.89" length="30.23" width="2.00" shape="5961.56,9434.86 5991.77,9435.97"/>
    </edge>
    <edge id=":1360087390_30" function="internal">
        <lane id=":1360087390_30_0" index="0" allow="bicycle" speed="6.01" length="3.31" width="2.00" shape="5961.50,9437.36 5963.51,9437.09 5964.59,9436.39"/>
    </edge>
    <edge id=":1360087390_31" function="internal">
        <lane id=":1360087390_31_0" index="0" allow="bicycle" speed="13.89" length="30.24" width="2.00" shape="5961.50,9437.36 5991.74,9437.97"/>
    </edge>
    <edge id=":1360087390_32" function="internal">
        <lane id=":1360087390_32_0" index="0" allow="bicycle" speed="13.40" length="3.27" width="2.00" shape="5961.50,9437.36 5964.41,9438.87"/>
    </edge>
    <edge id=":1360087390_33" function="internal">
        <lane id=":1360087390_33_0" index="0" disallow="pedestrian" speed="7.38" length="3.92" shape="5961.44,9440.26 5964.61,9439.83 5965.22,9439.44"/>
    </edge>
    <edge id=":1360087390_34" function="internal">
        <lane id=":1360087390_34_0" index="0" disallow="pedestrian" speed="13.89" length="30.54" shape="5961.44,9440.26 5991.67,9442.57"/>
        <lane id=":1360087390_34_1" index="1" disallow="pedestrian" speed="13.89" length="30.54" shape="5961.38,9443.06 5991.63,9445.77"/>
        <lane id=":1360087390_34_2" index="2" disallow="pedestrian" speed="13.89" length="30.54" shape="5961.38,9443.06 5970.43,9444.09 5976.48,9446.06 5982.54,9448.00 5991.59,9448.97"/>
    </edge>
    <edge id=":1360087390_37" function="internal">
        <lane id=":1360087390_37_0" index="0" disallow="pedestrian" speed="12.12" length="4.43" shape="5961.32,9445.86 5965.51,9447.29"/>
    </edge>
    <edge id=":1360087390_38" function="internal">
        <lane id=":1360087390_38_0" index="0" disallow="pedestrian" speed="11.71" length="5.90" shape="5961.26,9448.66 5967.08,9449.68"/>
    </edge>
    <edge id=":1360087390_53" function="internal">
        <lane id=":1360087390_53_0" index="0" allow="bicycle" speed="6.01" length="4.43" width="2.00" shape="5964.59,9436.39 5964.94,9436.17 5965.79,9434.60 5966.08,9432.39"/>
    </edge>
    <edge id=":1360087390_54" function="internal">
        <lane id=":1360087390_54_0" index="0" allow="bicycle" speed="13.40" length="37.80" width="2.00" shape="5964.41,9438.87 5968.69,9441.10 5976.59,9449.83 5982.97,9460.19 5985.60,9468.83"/>
    </edge>
    <edge id=":1360087390_55" function="internal">
        <lane id=":1360087390_55_0" index="0" disallow="pedestrian" speed="7.38" length="8.32" shape="5965.22,9439.44 5966.87,9438.37 5968.23,9435.89 5968.68,9432.39"/>
    </edge>
    <edge id=":1360087390_56" function="internal">
        <lane id=":1360087390_56_0" index="0" disallow="pedestrian" speed="12.12" length="29.06" shape="5965.51,9447.29 5968.46,9448.29 5975.49,9454.11 5980.86,9461.57 5983.00,9468.89"/>
    </edge>
    <edge id=":1360087390_57" function="internal">
        <lane id=":1360087390_57_0" index="0" disallow="pedestrian" speed="11.71" length="25.30" shape="5967.08,9449.68 5969.37,9450.08 5975.16,9453.94 5978.64,9460.23 5979.80,9468.97"/>
    </edge>
    <edge id=":1360087390_c0" function="crossing" crossingEdges="gneE787 gneE788">
        <lane id=":1360087390_c0_0" index="0" allow="pedestrian" speed="1.00" length="19.97" width="4.00" shape="5986.60,9466.83 5966.63,9467.28"/>
    </edge>
    <edge id=":1360087390_c1" function="crossing" crossingEdges="gneE523 gneE524">
        <lane id=":1360087390_c1_0" index="0" allow="pedestrian" speed="1.00" length="28.40" width="4.00" shape="5989.75,9436.94 5989.36,9465.34"/>
    </edge>
    <edge id=":1360087390_c2" function="crossing" crossingEdges="gneE476 gneE475.691">
        <lane id=":1360087390_c2_0" index="0" allow="pedestrian" speed="1.00" length="23.20" width="4.00" shape="5965.08,9434.39 5988.28,9434.39"/>
    </edge>
    <edge id=":1360087390_c3" function="crossing" crossingEdges="gneE522 gneE521.129">
        <lane id=":1360087390_c3_0" index="0" allow="pedestrian" speed="1.00" length="26.80" width="4.00" shape="5962.96,9462.70 5963.54,9435.90"/>
    </edge>
    <edge id=":1360087390_w0" function="walkingarea">
        <lane id=":1360087390_w0_0" index="0" allow="pedestrian" speed="1.00" length="5.27" width="4.00" shape="5960.96,9462.65 5960.92,9464.65 5964.63,9469.33 5966.63,9469.33 5966.47,9467.29 5966.00,9465.65 5965.21,9464.37 5964.11,9463.44 5962.69,9462.87"/>
    </edge>
    <edge id=":1360087390_w1" function="walkingarea">
        <lane id=":1360087390_w1_0" index="0" allow="pedestrian" speed="1.00" length="3.53" width="4.00" shape="5986.60,9468.79 5987.60,9468.79 5991.33,9467.37 5991.36,9465.37 5989.90,9465.45 5988.71,9465.72 5987.79,9466.20 5987.13,9466.88 5986.73,9467.75"/>
    </edge>
    <edge id=":1360087390_w2" function="walkingarea">
        <lane id=":1360087390_w2_0" index="0" allow="pedestrian" speed="1.00" length="3.36" width="4.00" shape="5991.75,9436.97 5991.78,9434.97 5990.28,9432.39 5988.28,9432.39 5988.38,9433.78 5988.67,9434.91 5989.15,9435.80 5989.82,9436.44 5990.69,9436.83"/>
    </edge>
    <edge id=":1360087390_w3" function="walkingarea">
        <lane id=":1360087390_w3_0" index="0" allow="pedestrian" speed="1.00" length="2.88" width="4.00" shape="5965.08,9432.39 5963.08,9432.39 5961.58,9433.86 5961.54,9435.86 5962.62,9435.79 5963.51,9435.51 5964.19,9435.03 5964.69,9434.35 5964.98,9433.47"/>
    </edge>
    <edge id=":1422005419_0" function="internal">
        <lane id=":1422005419_0_0" index="0" allow="pedestrian" speed="13.89" length="9.29" width="3.00" shape="5672.84,8725.61 5671.81,8723.12 5669.95,8721.88 5668.10,8720.63 5667.07,8718.14"/>
        <lane id=":1422005419_0_1" index="1" allow="bicycle" speed="13.89" length="9.29" width="3.00" shape="5675.93,8725.30 5674.87,8722.81 5672.99,8721.57 5671.10,8720.34 5670.05,8717.84"/>
        <lane id=":1422005419_0_2" index="2" disallow="pedestrian" speed="13.89" length="9.29" width="2.80" shape="5679.11,8724.98 5678.01,8722.47 5676.02,8721.27 5674.04,8720.06 5672.94,8717.55"/>
        <lane id=":1422005419_0_3" index="3" disallow="pedestrian" speed="13.89" length="9.29" width="2.80" shape="5679.11,8724.98 5678.46,8722.60 5677.42,8721.13 5676.37,8719.66 5675.72,8717.28"/>
        <lane id=":1422005419_0_4" index="4" disallow="pedestrian" speed="13.89" length="9.29" width="2.80" shape="5679.11,8724.98 5678.51,8717.00"/>
    </edge>
    <edge id=":1422005419_5" function="internal">
        <lane id=":1422005419_5_0" index="0" allow="pedestrian" speed="13.89" length="7.99" width="3.00" shape="5687.76,8716.08 5688.56,8724.02"/>
        <lane id=":1422005419_5_1" index="1" allow="bicycle" speed="13.89" length="7.99" shape="5684.68,8716.38 5685.48,8724.33"/>
        <lane id=":1422005419_5_2" index="2" disallow="pedestrian" speed="13.89" length="7.99" shape="5681.50,8716.70 5682.30,8724.66"/>
    </edge>
    <edge id=":1422005419_w0" function="walkingarea">
        <lane id=":1422005419_w0_0" index="0" allow="pedestrian" speed="1.00" length="9.45" width="3.00" shape="5668.56,8717.99 5665.57,8718.29 5671.35,8725.77 5674.34,8725.46 5673.78,8723.60 5672.73,8722.48 5671.44,8721.73 5670.16,8720.97 5669.12,8719.85"/>
    </edge>
    <edge id=":1422005419_w1" function="walkingarea">
        <lane id=":1422005419_w1_0" index="0" allow="pedestrian" speed="1.00" length="7.98" width="3.00" shape="5687.07,8724.17 5690.06,8723.87 5689.26,8715.93 5686.27,8716.23"/>
    </edge>
    <edge id=":1732795518_w0" function="walkingarea">
        <lane id=":1732795518_w0_0" index="0" allow="pedestrian" speed="1.00" length="30.40" width="2.00" shape="6072.20,9466.48 6072.17,9468.48 6072.61,9436.08 6072.59,9438.08"/>
    </edge>
    <edge id=":2355090153_0" function="internal">
        <lane id=":2355090153_0_0" index="0" allow="pedestrian" speed="18.06" length="8.81" width="2.00" shape="5628.78,9195.33 5627.47,9192.92 5627.72,9190.64 5627.98,9188.35 5626.73,9185.88"/>
        <lane id=":2355090153_0_1" index="1" allow="bicycle" speed="18.06" length="8.81" width="2.00" shape="5630.18,9193.90 5628.58,9192.07 5627.70,9190.62 5626.84,9189.15 5625.29,9187.27"/>
        <lane id=":2355090153_0_2" index="2" disallow="pedestrian tram rail_urban rail rail_electric rail_fast ship" speed="18.06" length="8.81" shape="5632.00,9192.04 5630.58,9189.96 5630.26,9188.09 5629.96,9186.21 5628.60,9184.08"/>
        <lane id=":2355090153_0_3" index="3" disallow="pedestrian tram rail_urban rail rail_electric rail_fast ship" speed="18.06" length="8.81" shape="5634.24,9189.75 5628.60,9184.08"/>
    </edge>
    <edge id=":2355090153_4" function="internal">
        <lane id=":2355090153_4_0" index="0" allow="pedestrian" speed="18.06" length="8.44" width="2.00" shape="5634.21,9178.66 5636.22,9180.03 5638.04,9180.31 5639.87,9180.58 5641.93,9181.89"/>
        <lane id=":2355090153_4_1" index="1" allow="bicycle" speed="18.06" length="8.44" width="2.00" shape="5632.77,9180.05 5634.79,9181.43 5636.62,9181.72 5638.46,9181.99 5640.53,9183.32"/>
        <lane id=":2355090153_4_2" index="2" disallow="pedestrian tram rail_urban rail rail_electric rail_fast ship" speed="18.06" length="8.44" shape="5630.90,9181.86 5632.94,9183.25 5634.77,9183.55 5636.62,9183.84 5638.71,9185.18"/>
        <lane id=":2355090153_4_3" index="3" disallow="pedestrian tram rail_urban rail rail_electric rail_fast ship" speed="18.06" length="8.44" shape="5630.90,9181.86 5636.47,9187.47"/>
    </edge>
    <edge id=":2355090153_w1" function="walkingarea">
        <lane id=":2355090153_w1_0" index="0" allow="pedestrian" speed="1.00" length="8.36" width="2.00" shape="5641.23,9182.60 5642.62,9181.17 5634.93,9177.97 5633.49,9179.36 5634.87,9180.44 5636.13,9180.89 5637.33,9181.01 5638.54,9181.13 5639.81,9181.56"/>
    </edge>
    <edge id=":245133700_0" function="internal">
        <lane id=":245133700_0_0" index="0" allow="pedestrian" speed="4.82" length="4.66" width="2.00" shape="4960.81,9120.73 4959.38,9120.83 4958.33,9121.25 4957.65,9121.99 4957.35,9123.04"/>
    </edge>
    <edge id=":245133700_1" function="internal">
        <lane id=":245133700_1_0" index="0" allow="bicycle" speed="6.07" length="7.75" width="2.00" shape="4960.88,9118.74 4958.62,9118.92 4956.95,9119.67 4955.86,9120.98 4955.36,9122.85"/>
    </edge>
    <edge id=":245133700_2" function="internal">
        <lane id=":245133700_2_0" index="0" allow="bicycle" speed="10.42" length="25.96" width="2.00" shape="4960.88,9118.74 4953.51,9117.48 4948.42,9114.38 4945.61,9109.43 4945.07,9102.63"/>
    </edge>
    <edge id=":245133700_3" function="internal">
        <lane id=":245133700_3_0" index="0" disallow="pedestrian" speed="8.02" length="13.63" width="4.00" shape="4961.02,9115.14 4957.08,9115.47 4954.16,9116.80 4952.26,9119.13 4951.38,9122.47"/>
    </edge>
    <edge id=":245133700_4" function="internal">
        <lane id=":245133700_4_0" index="0" disallow="pedestrian" speed="9.20" length="19.65" width="4.00" shape="4961.02,9115.14 4955.45,9114.19 4951.59,9111.84 4949.46,9108.09 4949.06,9102.94"/>
    </edge>
    <edge id=":245133700_5" function="internal">
        <lane id=":245133700_5_0" index="0" allow="pedestrian" speed="4.39" length="4.05" width="2.00" shape="4959.03,9103.72 4959.10,9104.83 4959.51,9105.64 4960.27,9106.14 4961.37,9106.35"/>
    </edge>
    <edge id=":245133700_6" function="internal">
        <lane id=":245133700_6_0" index="0" allow="bicycle" speed="5.73" length="2.50" width="2.00" shape="4957.03,9103.56 4957.16,9105.59 4957.38,9106.00"/>
    </edge>
    <edge id=":245133700_7" function="internal">
        <lane id=":245133700_7_0" index="0" allow="bicycle" speed="13.89" length="19.36" width="2.00" shape="4957.03,9103.56 4955.36,9122.85"/>
    </edge>
    <edge id=":245133700_8" function="internal">
        <lane id=":245133700_8_0" index="0" disallow="pedestrian" speed="7.83" length="6.28" shape="4953.04,9103.25 4953.31,9106.93 4954.53,9109.21"/>
    </edge>
    <edge id=":245133700_9" function="internal">
        <lane id=":245133700_9_0" index="0" disallow="pedestrian" speed="13.89" length="19.29" width="4.00" shape="4953.04,9103.25 4951.38,9122.47"/>
    </edge>
    <edge id=":245133700_15" function="internal">
        <lane id=":245133700_15_0" index="0" allow="bicycle" speed="5.73" length="4.87" width="2.00" shape="4957.38,9106.00 4957.92,9107.06 4959.29,9107.98 4961.29,9108.34"/>
    </edge>
    <edge id=":245133700_16" function="internal">
        <lane id=":245133700_16_0" index="0" disallow="pedestrian" speed="7.83" length="7.40" shape="4954.53,9109.21 4954.75,9109.60 4957.36,9111.27 4961.15,9111.94"/>
    </edge>
    <edge id=":245133700_10" function="internal">
        <lane id=":245133700_10_0" index="0" allow="pedestrian" speed="13.89" length="19.12" width="2.00" shape="4941.42,9121.51 4943.07,9102.47"/>
        <lane id=":245133700_10_1" index="1" allow="bicycle" speed="13.89" length="19.12" width="2.00" shape="4943.41,9121.70 4945.07,9102.63"/>
    </edge>
    <edge id=":245133700_12" function="internal">
        <lane id=":245133700_12_0" index="0" allow="bicycle" speed="10.63" length="13.84" width="2.00" shape="4943.41,9121.70 4945.04,9115.61 4948.56,9111.36 4950.40,9110.54"/>
    </edge>
    <edge id=":245133700_13" function="internal">
        <lane id=":245133700_13_0" index="0" disallow="pedestrian" speed="13.89" length="19.21" width="4.00" shape="4947.40,9122.08 4949.06,9102.94"/>
    </edge>
    <edge id=":245133700_14" function="internal">
        <lane id=":245133700_14_0" index="0" disallow="pedestrian" speed="9.48" length="6.81" shape="4947.40,9122.08 4948.64,9117.46 4949.94,9115.91"/>
    </edge>
    <edge id=":245133700_17" function="internal">
        <lane id=":245133700_17_0" index="0" allow="bicycle" speed="10.63" length="11.25" width="2.00" shape="4950.40,9110.54 4953.98,9108.94 4961.29,9108.34"/>
    </edge>
    <edge id=":245133700_18" function="internal">
        <lane id=":245133700_18_0" index="0" disallow="pedestrian" speed="9.48" length="12.40" shape="4949.94,9115.91 4951.35,9114.23 4955.52,9112.39 4961.15,9111.94"/>
    </edge>
    <edge id=":245133700_c0" function="crossing" crossingEdges="gneE317 gneE318">