<?xml version="1.0" encoding="UTF-8"?>

<!-- generated on 12/27/20 19:28:43 by Eclipse SUMO netedit Version 1.6.0
<configuration xmlns:xsi="http://www.w3.org/2001/XMLSchema-instance" xsi:noNamespaceSchemaLocation="http://sumo.dlr.de/xsd/netconvertConfiguration.xsd">

    <input>
        <sumo-net-file value="C:\hansm\idlab\2020W\1234.net.xml"/>
    </input>

    <output>
        <output-file value="C:\hansm\idlab\graduation\simulation\tumap-2.net.xml"/>
    </output>

    <processing>
        <geometry.min-radius.fix.railways value="false"/>
        <geometry.max-grade.fix value="false"/>
        <offset.disable-normalization value="true"/>
        <lefthand value="false"/>
    </processing>

    <junctions>
        <no-internal-links value="false"/>
        <no-turnarounds value="true"/>
        <junctions.corner-detail value="5"/>
        <junctions.limit-turn-speed value="5.5"/>
        <rectangular-lane-cut value="false"/>
    </junctions>

    <pedestrian>
        <walkingareas value="false"/>
    </pedestrian>

    <report>
        <aggregate-warnings value="5"/>
    </report>

</configuration>
-->

<net version="1.6" junctionCornerDetail="5" limitTurnSpeed="5.50" xmlns:xsi="http://www.w3.org/2001/XMLSchema-instance" xsi:noNamespaceSchemaLocation="http://sumo.dlr.de/xsd/net_file.xsd">

    <location netOffset="-437203.78,-4418435.12" convBoundary="3525.24,0.00,21973.65,13250.21" origBoundary="116.264254,39.914284,116.521519,40.034403" projParameter="+proj=utm +zone=50 +ellps=WGS84 +datum=WGS84 +units=m +no_defs"/>

    <type id="highway.bridleway" priority="1" numLanes="1" speed="2.78" allow="pedestrian" oneway="1" width="2.00"/>
    <type id="highway.bus_guideway" priority="1" numLanes="1" speed="27.78" allow="bus" oneway="1"/>
    <type id="highway.cycleway" priority="1" numLanes="1" speed="8.33" allow="bicycle" oneway="0" width="1.00"/>
    <type id="highway.footway" priority="1" numLanes="1" speed="2.78" allow="pedestrian" oneway="1" width="2.00"/>
    <type id="highway.ford" priority="1" numLanes="1" speed="2.78" allow="army" oneway="0"/>
    <type id="highway.living_street" priority="2" numLanes="1" speed="2.78" disallow="tram rail_urban rail rail_electric ship" oneway="0"/>
    <type id="highway.motorway" priority="14" numLanes="2" speed="39.44" allow="private emergency authority army vip passenger hov taxi bus coach delivery truck trailer motorcycle evehicle custom1 custom2" oneway="1"/>
    <type id="highway.motorway_link" priority="9" numLanes="1" speed="22.22" allow="private emergency authority army vip passenger hov taxi bus coach delivery truck trailer motorcycle evehicle custom1 custom2" oneway="1"/>
    <type id="highway.path" priority="1" numLanes="1" speed="2.78" allow="pedestrian bicycle" oneway="1" width="2.00"/>
    <type id="highway.pedestrian" priority="1" numLanes="1" speed="2.78" allow="pedestrian" oneway="1" width="2.00"/>
    <type id="highway.primary" priority="12" numLanes="2" speed="27.78" disallow="tram rail_urban rail rail_electric ship" oneway="0"/>
    <type id="highway.primary_link" priority="7" numLanes="1" speed="22.22" disallow="tram rail_urban rail rail_electric ship" oneway="0"/>
    <type id="highway.raceway" priority="15" numLanes="2" speed="83.33" allow="vip" oneway="0"/>
    <type id="highway.residential" priority="3" numLanes="1" speed="13.89" disallow="tram rail_urban rail rail_electric ship" oneway="0"/>
    <type id="highway.secondary" priority="11" numLanes="2" speed="27.78" disallow="tram rail_urban rail rail_electric ship" oneway="0"/>
    <type id="highway.secondary_link" priority="6" numLanes="1" speed="22.22" disallow="tram rail_urban rail rail_electric ship" oneway="0"/>
    <type id="highway.service" priority="1" numLanes="1" speed="5.56" allow="pedestrian delivery bicycle" oneway="0"/>
    <type id="highway.stairs" priority="1" numLanes="1" speed="1.39" allow="pedestrian" oneway="1" width="2.00"/>
    <type id="highway.step" priority="1" numLanes="1" speed="1.39" allow="pedestrian" oneway="1" width="2.00"/>
    <type id="highway.steps" priority="1" numLanes="1" speed="1.39" allow="pedestrian" oneway="1" width="2.00"/>
    <type id="highway.tertiary" priority="10" numLanes="1" speed="22.22" disallow="tram rail_urban rail rail_electric ship" oneway="0"/>
    <type id="highway.tertiary_link" priority="5" numLanes="1" speed="22.22" disallow="tram rail_urban rail rail_electric ship" oneway="0"/>
    <type id="highway.track" priority="1" numLanes="1" speed="5.56" disallow="tram rail_urban rail rail_electric ship" oneway="0"/>
    <type id="highway.trunk" priority="13" numLanes="2" speed="27.78" disallow="pedestrian bicycle tram rail_urban rail rail_electric ship" oneway="0"/>
    <type id="highway.trunk_link" priority="8" numLanes="1" speed="22.22" disallow="pedestrian bicycle tram rail_urban rail rail_electric ship" oneway="0"/>
    <type id="highway.unclassified" priority="4" numLanes="1" speed="13.89" disallow="tram rail_urban rail rail_electric ship" oneway="0"/>
    <type id="highway.unsurfaced" priority="1" numLanes="1" speed="8.33" disallow="tram rail_urban rail rail_electric ship" oneway="0"/>
    <type id="railway.highspeed" priority="21" numLanes="1" speed="69.44" allow="rail_electric" oneway="1"/>
    <type id="railway.light_rail" priority="19" numLanes="1" speed="27.78" allow="rail_urban" oneway="1"/>
    <type id="railway.preserved" priority="16" numLanes="1" speed="27.78" allow="rail" oneway="1"/>
    <type id="railway.rail" priority="20" numLanes="1" speed="44.44" allow="rail" oneway="1"/>
    <type id="railway.subway" priority="18" numLanes="1" speed="27.78" allow="rail_urban" oneway="1"/>
    <type id="railway.tram" priority="17" numLanes="1" speed="13.89" allow="tram" oneway="1"/>

    <edge id=":1356404969_w0" function="walkingarea">
        <lane id=":1356404969_w0_0" index="0" allow="pedestrian" speed="1.00" length="18.80" width="2.00" shape="6086.61,8610.46 6086.56,8612.46 6087.02,8591.66 6086.97,8593.66"/>
    </edge>
    <edge id=":1360087390_0" function="internal">
        <lane id=":1360087390_0_0" index="0" allow="pedestrian" speed="6.19" length="3.46" width="2.00" shape="5965.63,9469.33 5965.34,9466.88 5964.89,9465.99"/>
    </edge>
    <edge id=":1360087390_1" function="internal">
        <lane id=":1360087390_1_0" index="0" allow="pedestrian" speed="13.89" length="36.97" width="2.00" shape="5965.63,9469.33 5964.08,9432.39"/>
    </edge>
    <edge id=":1360087390_2" function="internal">
        <lane id=":1360087390_2_0" index="0" allow="bicycle" speed="7.31" length="5.33" width="3.00" shape="5967.63,9469.28 5967.22,9465.78 5966.42,9464.16"/>
    </edge>
    <edge id=":1360087390_3" function="internal">
        <lane id=":1360087390_3_0" index="0" allow="bicycle" speed="13.89" length="36.92" width="2.00" shape="5967.63,9469.28 5966.08,9432.39"/>
    </edge>
    <edge id=":1360087390_4" function="internal">
        <lane id=":1360087390_4_0" index="0" allow="bicycle" speed="13.16" length="29.10" width="2.00" shape="5967.63,9469.28 5970.25,9460.62 5976.63,9450.25 5981.93,9444.42"/>
    </edge>
    <edge id=":1360087390_5" function="internal">
        <lane id=":1360087390_5_0" index="0" disallow="pedestrian" speed="8.62" length="5.40" shape="5970.23,9469.21 5969.66,9464.40 5969.41,9463.90"/>
    </edge>
    <edge id=":1360087390_6" function="internal">
        <lane id=":1360087390_6_0" index="0" disallow="pedestrian" speed="13.89" length="36.96" shape="5973.43,9469.13 5972.69,9458.18 5971.05,9450.76 5969.42,9443.34 5968.68,9432.39"/>
        <lane id=":1360087390_6_1" index="1" disallow="pedestrian" speed="13.89" length="36.96" shape="5973.43,9469.13 5971.88,9432.39"/>
    </edge>
    <edge id=":1360087390_8" function="internal">
        <lane id=":1360087390_8_0" index="0" disallow="pedestrian" speed="11.07" length="9.52" shape="5976.63,9469.05 5977.56,9460.19 5977.81,9459.63"/>
    </edge>
    <edge id=":1360087390_39" function="internal">
        <lane id=":1360087390_39_0" index="0" allow="pedestrian" speed="6.19" length="4.88" width="2.00" shape="5964.89,9465.99 5964.46,9465.12 5962.99,9464.05 5960.94,9463.65"/>
    </edge>
    <edge id=":1360087390_40" function="internal">
        <lane id=":1360087390_40_0" index="0" allow="bicycle" speed="7.31" length="6.54" width="3.00" shape="5966.42,9464.16 5965.97,9463.26 5963.90,9461.72 5960.99,9461.15"/>
    </edge>
    <edge id=":1360087390_41" function="internal">
        <lane id=":1360087390_41_0" index="0" allow="bicycle" speed="13.16" length="11.92" width="2.00" shape="5981.93,9444.42 5984.54,9441.56 5991.74,9437.97"/>
    </edge>
    <edge id=":1360087390_42" function="internal">
        <lane id=":1360087390_42_0" index="0" disallow="pedestrian" speed="8.62" length="10.95" shape="5969.41,9463.90 5967.94,9460.94 5965.07,9458.83 5961.06,9458.06"/>
    </edge>
    <edge id=":1360087390_43" function="internal">
        <lane id=":1360087390_43_0" index="0" disallow="pedestrian" speed="11.07" length="18.92" shape="5977.81,9459.63 5980.37,9453.89 5985.04,9450.15 5991.59,9448.97"/>
    </edge>
    <edge id=":1360087390_9" function="internal">
        <lane id=":1360087390_9_0" index="0" allow="pedestrian" speed="5.05" length="5.48" width="1.00" shape="5991.34,9466.37 5989.49,9466.50 5988.16,9466.94 5987.36,9467.71 5987.10,9468.79"/>
    </edge>
    <edge id=":1360087390_10" function="internal">
        <lane id=":1360087390_10_0" index="0" allow="pedestrian" speed="13.89" length="30.52" width="2.00" shape="5991.34,9466.37 5960.94,9463.65"/>
    </edge>
    <edge id=":1360087390_11" function="internal">
        <lane id=":1360087390_11_0" index="0" allow="bicycle" speed="6.11" length="2.95" width="2.00" shape="5991.37,9464.37 5988.85,9464.62 5988.47,9464.79"/>
    </edge>
    <edge id=":1360087390_12" function="internal">
        <lane id=":1360087390_12_0" index="0" allow="bicycle" speed="13.89" length="30.58" width="3.00" shape="5991.37,9464.37 5982.33,9463.82 5976.18,9462.81 5970.04,9461.77 5960.99,9461.15"/>
    </edge>
    <edge id=":1360087390_13" function="internal">
        <lane id=":1360087390_13_0" index="0" allow="bicycle" speed="13.49" length="4.43" width="2.00" shape="5991.37,9464.37 5987.42,9462.35"/>
    </edge>
    <edge id=":1360087390_14" function="internal">
        <lane id=":1360087390_14_0" index="0" disallow="pedestrian" speed="7.53" length="8.16" shape="5991.41,9461.77 5987.73,9462.17 5985.10,9463.49 5984.23,9464.73"/>
    </edge>
    <edge id=":1360087390_15" function="internal">
        <lane id=":1360087390_15_0" index="0" disallow="pedestrian" speed="13.89" length="30.53" shape="5991.45,9458.57 5961.06,9458.06"/>
        <lane id=":1360087390_15_1" index="1" disallow="pedestrian" speed="13.89" length="30.53" shape="5991.45,9458.57 5982.42,9457.95 5976.29,9456.76 5970.16,9455.54 5961.13,9454.86"/>
        <lane id=":1360087390_15_2" index="2" disallow="pedestrian" speed="13.89" length="30.53" shape="5991.50,9455.37 5982.47,9454.75 5976.35,9453.56 5970.22,9452.35 5961.20,9451.66"/>
    </edge>
    <edge id=":1360087390_18" function="internal">
        <lane id=":1360087390_18_0" index="0" disallow="pedestrian" speed="11.79" length="7.29" shape="5991.54,9452.17 5984.34,9451.05"/>
    </edge>
    <edge id=":1360087390_44" function="internal">
        <lane id=":1360087390_44_0" index="0" allow="bicycle" speed="6.11" length="5.36" width="2.00" shape="5988.47,9464.79 5987.04,9465.44 5985.96,9466.85 5985.60,9468.83"/>
    </edge>
    <edge id=":1360087390_45" function="internal">
        <lane id=":1360087390_45_0" index="0" allow="bicycle" speed="13.49" length="37.79" width="2.00" shape="5987.42,9462.35 5983.93,9460.57 5975.62,9451.67 5968.87,9441.12 5966.08,9432.39"/>
    </edge>
    <edge id=":1360087390_46" function="internal">
        <lane id=":1360087390_46_0" index="0" disallow="pedestrian" speed="7.53" length="4.43" shape="5984.23,9464.73 5983.52,9465.73 5983.00,9468.89"/>
    </edge>
    <edge id=":1360087390_47" function="internal">
        <lane id=":1360087390_47_0" index="0" disallow="pedestrian" speed="11.79" length="24.42" shape="5984.34,9451.05 5982.94,9450.83 5976.80,9447.09 5973.11,9440.94 5971.88,9432.39"/>
    </edge>
    <edge id=":1360087390_19" function="internal">
        <lane id=":1360087390_19_0" index="0" allow="pedestrian" speed="4.86" length="4.91" width="2.00" shape="5989.28,9432.39 5989.44,9433.94 5989.90,9435.06 5990.68,9435.73 5991.77,9435.97"/>
    </edge>
    <edge id=":1360087390_20" function="internal">
        <lane id=":1360087390_20_0" index="0" allow="pedestrian" speed="13.89" length="36.47" width="1.00" shape="5989.28,9432.39 5987.10,9468.79"/>
    </edge>
    <edge id=":1360087390_21" function="internal">
        <lane id=":1360087390_21_0" index="0" allow="bicycle" speed="6.09" length="2.93" width="2.00" shape="5987.28,9432.39 5987.56,9434.81 5987.78,9435.26"/>
    </edge>
    <edge id=":1360087390_22" function="internal">
        <lane id=":1360087390_22_0" index="0" allow="bicycle" speed="13.89" length="36.48" width="2.00" shape="5987.28,9432.39 5985.60,9468.83"/>
    </edge>
    <edge id=":1360087390_23" function="internal">
        <lane id=":1360087390_23_0" index="0" allow="bicycle" speed="13.07" length="30.53" width="3.00" shape="5987.28,9432.39 5984.42,9440.66 5977.47,9450.18 5970.07,9456.89"/>
    </edge>
    <edge id=":1360087390_24" function="internal">
        <lane id=":1360087390_24_0" index="0" disallow="pedestrian" speed="7.97" length="4.14" shape="5984.68,9432.39 5985.09,9436.51"/>
    </edge>
    <edge id=":1360087390_25" function="internal">
        <lane id=":1360087390_25_0" index="0" disallow="pedestrian" speed="13.89" length="36.58" shape="5981.48,9432.39 5983.00,9468.89"/>
        <lane id=":1360087390_25_1" index="1" disallow="pedestrian" speed="13.89" length="36.58" shape="5978.28,9432.39 5979.80,9468.97"/>
    </edge>
    <edge id=":1360087390_27" function="internal">
        <lane id=":1360087390_27_0" index="0" disallow="pedestrian" speed="10.77" length="9.44" shape="5975.08,9432.39 5974.21,9440.93 5973.88,9441.72"/>
    </edge>
    <edge id=":1360087390_48" function="internal">
        <lane id=":1360087390_48_0" index="0" allow="bicycle" speed="6.09" length="5.16" width="2.00" shape="5987.78,9435.26 5988.39,9436.54 5989.79,9437.60 5991.74,9437.97"/>
    </edge>
    <edge id=":1360087390_49" function="internal">
        <lane id=":1360087390_49_0" index="0" allow="bicycle" speed="13.07" length="10.11" width="3.00" shape="5970.07,9456.89 5968.85,9457.99 5960.99,9461.15"/>
    </edge>
    <edge id=":1360087390_50" function="internal">
        <lane id=":1360087390_50_0" index="0" disallow="pedestrian" speed="7.97" length="9.77" shape="5985.09,9436.51 5985.12,9436.81 5986.43,9439.98 5988.61,9441.90 5991.67,9442.57"/>
    </edge>
    <edge id=":1360087390_51" function="internal">
        <lane id=":1360087390_51_0" index="0" disallow="pedestrian" speed="10.77" length="17.53" shape="5973.88,9441.72 5971.61,9446.99 5967.27,9450.56 5961.20,9451.66"/>
    </edge>
    <edge id=":1360087390_28" function="internal">
        <lane id=":1360087390_28_0" index="0" allow="pedestrian" speed="4.41" length="4.05" width="2.00" shape="5961.56,9434.86 5962.66,9434.73 5963.45,9434.27 5963.92,9433.49 5964.08,9432.39"/>
    </edge>
    <edge id=":1360087390_29" function="internal">
        <lane id=":1360087390_29_0" index="0" allow="pedestrian" speed="13.89" length="30.23" width="2.00" shape="5961.56,9434.86 5991.77,9435.97"/>
    </edge>
    <edge id=":1360087390_30" function="internal">
        <lane id=":1360087390_30_0" index="0" allow="bicycle" speed="6.01" length="3.31" width="2.00" shape="5961.50,9437.36 5963.51,9437.09 5964.59,9436.39"/>
    </edge>
    <edge id=":1360087390_31" function="internal">
        <lane id=":1360087390_31_0" index="0" allow="bicycle" speed="13.89" length="30.24" width="2.00" shape="5961.50,9437.36 5991.74,9437.97"/>
    </edge>
    <edge id=":1360087390_32" function="internal">
        <lane id=":1360087390_32_0" index="0" allow="bicycle" speed="13.41" length="3.27" width="2.00" shape="5961.50,9437.36 5964.41,9438.87"/>
    </edge>
    <edge id=":1360087390_33" function="internal">
        <lane id=":1360087390_33_0" index="0" disallow="pedestrian" speed="7.38" length="3.92" shape="5961.44,9440.26 5964.61,9439.83 5965.22,9439.44"/>
    </edge>
    <edge id=":1360087390_34" function="internal">
        <lane id=":1360087390_34_0" index="0" disallow="pedestrian" speed="13.89" length="30.54" shape="5961.44,9440.26 5991.67,9442.57"/>
        <lane id=":1360087390_34_1" index="1" disallow="pedestrian" speed="13.89" length="30.54" shape="5961.38,9443.06 5991.63,9445.77"/>
        <lane id=":1360087390_34_2" index="2" disallow="pedestrian" speed="13.89" length="30.54" shape="5961.38,9443.06 5970.43,9444.09 5976.48,9446.06 5982.54,9448.00 5991.59,9448.97"/>
    </edge>
    <edge id=":1360087390_37" function="internal">
        <lane id=":1360087390_37_0" index="0" disallow="pedestrian" speed="12.54" length="4.43" shape="5961.32,9445.86 5965.69,9446.60"/>
    </edge>
    <edge id=":1360087390_38" function="internal">
        <lane id=":1360087390_38_0" index="0" disallow="pedestrian" speed="11.71" length="5.90" shape="5961.26,9448.66 5967.08,9449.68"/>
    </edge>
    <edge id=":1360087390_52" function="internal">
        <lane id=":1360087390_52_0" index="0" allow="bicycle" speed="6.01" length="4.43" width="2.00" shape="5964.59,9436.39 5964.94,9436.17 5965.79,9434.60 5966.08,9432.39"/>
    </edge>
    <edge id=":1360087390_53" function="internal">
        <lane id=":1360087390_53_0" index="0" allow="bicycle" speed="13.41" length="37.80" width="2.00" shape="5964.41,9438.87 5968.68,9441.10 5976.58,9449.83 5982.97,9460.19 5985.60,9468.83"/>
    </edge>
    <edge id=":1360087390_54" function="internal">
        <lane id=":1360087390_54_0" index="0" disallow="pedestrian" speed="7.38" length="8.32" shape="5965.22,9439.44 5966.87,9438.37 5968.23,9435.89 5968.68,9432.39"/>
    </edge>
    <edge id=":1360087390_55" function="internal">
        <lane id=":1360087390_55_0" index="0" disallow="pedestrian" speed="12.54" length="31.46" shape="5965.69,9446.60 5970.80,9447.47 5977.57,9451.85 5981.64,9458.99 5983.00,9468.89"/>
    </edge>
    <edge id=":1360087390_56" function="internal">
        <lane id=":1360087390_56_0" index="0" disallow="pedestrian" speed="11.71" length="25.29" shape="5967.08,9449.68 5969.37,9450.08 5975.16,9453.94 5978.63,9460.23 5979.80,9468.97"/>
    </edge>
    <edge id=":1360087390_c0" function="crossing" crossingEdges="gneE787 gneE788">
        <lane id=":1360087390_c0_0" index="0" allow="pedestrian" speed="1.00" length="19.97" width="4.00" shape="5986.60,9466.83 5966.63,9467.28"/>
    </edge>
    <edge id=":1360087390_c1" function="crossing" crossingEdges="gneE523 gneE524">
        <lane id=":1360087390_c1_0" index="0" allow="pedestrian" speed="1.00" length="28.40" width="4.00" shape="5989.75,9436.94 5989.36,9465.34"/>
    </edge>
    <edge id=":1360087390_c2" function="crossing" crossingEdges="gneE476 gneE475.691">
        <lane id=":1360087390_c2_0" index="0" allow="pedestrian" speed="1.00" length="23.20" width="4.00" shape="5965.08,9434.39 5988.28,9434.39"/>
    </edge>
    <edge id=":1360087390_c3" function="crossing" crossingEdges="gneE522 gneE521.129">
        <lane id=":1360087390_c3_0" index="0" allow="pedestrian" speed="1.00" length="26.80" width="4.00" shape="5962.96,9462.70 5963.54,9435.90"/>
    </edge>
    <edge id=":1360087390_w0" function="walkingarea">
        <lane id=":1360087390_w0_0" index="0" allow="pedestrian" speed="1.00" length="5.27" width="4.00" shape="5960.96,9462.65 5960.92,9464.65 5964.63,9469.33 5966.63,9469.33 5966.47,9467.29 5966.00,9465.65 5965.21,9464.37 5964.11,9463.44 5962.69,9462.87"/>
    </edge>
    <edge id=":1360087390_w1" function="walkingarea">
        <lane id=":1360087390_w1_0" index="0" allow="pedestrian" speed="1.00" length="3.53" width="4.00" shape="5986.60,9468.79 5987.60,9468.79 5991.33,9467.37 5991.36,9465.37 5989.90,9465.45 5988.71,9465.72 5987.79,9466.20 5987.13,9466.88 5986.73,9467.75"/>
    </edge>
    <edge id=":1360087390_w2" function="walkingarea">
        <lane id=":1360087390_w2_0" index="0" allow="pedestrian" speed="1.00" length="3.36" width="4.00" shape="5991.75,9436.97 5991.78,9434.97 5990.28,9432.39 5988.28,9432.39 5988.38,9433.78 5988.67,9434.91 5989.15,9435.80 5989.82,9436.44 5990.69,9436.83"/>
    </edge>
    <edge id=":1360087390_w3" function="walkingarea">
        <lane id=":1360087390_w3_0" index="0" allow="pedestrian" speed="1.00" length="2.88" width="4.00" shape="5965.08,9432.39 5963.08,9432.39 5961.58,9433.86 5961.54,9435.86 5962.62,9435.79 5963.51,9435.51 5964.19,9435.03 5964.69,9434.35 5964.98,9433.47"/>
    </edge>
    <edge id=":1360087481_0" function="internal">
        <lane id=":1360087481_0_0" index="0" allow="pedestrian" speed="13.89" length="2.57" width="2.00" shape="5303.76,10789.49 5303.42,10789.95 5303.24,10790.30 5303.09,10790.67 5302.86,10791.20"/>
        <lane id=":1360087481_0_1" index="1" allow="bicycle" speed="13.89" length="2.57" width="2.00" shape="5301.80,10787.94 5301.43,10788.57 5301.34,10789.08 5301.29,10789.62 5301.06,10790.33"/>
        <lane id=":1360087481_0_2" index="2" disallow="pedestrian" speed="13.89" length="2.57" width="4.00" shape="5299.37,10786.01 5298.89,10786.81 5298.75,10787.45 5298.66,10788.13 5298.35,10789.04"/>
    </edge>
    <edge id=":1360087481_3" function="internal">
        <lane id=":1360087481_3_0" index="0" allow="pedestrian" speed="13.31" length="4.31" width="2.00" shape="5289.98,10782.71 5290.83,10782.19 5291.38,10781.79 5291.86,10781.30 5292.48,10780.53"/>
        <lane id=":1360087481_3_1" index="1" allow="bicycle" speed="13.89" length="4.31" width="3.00" shape="5291.00,10784.43 5292.11,10783.85 5292.91,10783.47 5293.61,10782.99 5294.44,10782.09"/>
        <lane id=":1360087481_3_2" index="2" disallow="pedestrian" speed="13.89" length="4.31" shape="5292.31,10786.67 5293.75,10785.98 5294.83,10785.62 5295.78,10785.11 5296.87,10784.02"/>
    </edge>
    <edge id=":1360087481_c0" function="crossing" crossingEdges="gneE535 gneE536">
        <lane id=":1360087481_c0_0" index="0" allow="pedestrian" speed="1.00" length="12.40" width="4.00" shape="5292.02,10782.72 5301.73,10790.44"/>
    </edge>
    <edge id=":1360087481_w0" function="walkingarea">
        <lane id=":1360087481_w0_0" index="0" allow="pedestrian" speed="1.00" length="1.84" width="4.00" shape="5301.96,10790.76 5303.77,10791.63 5304.54,10790.11 5302.97,10788.87 5302.70,10789.23 5302.52,10789.52 5302.39,10789.77 5302.28,10790.03 5302.15,10790.35"/>
    </edge>
    <edge id=":1360087481_w1" function="walkingarea">
        <lane id=":1360087481_w1_0" index="0" allow="pedestrian" speed="1.00" length="2.53" width="4.00" shape="5293.27,10781.15 5291.70,10779.91 5289.47,10781.84 5290.49,10783.57 5291.17,10783.16 5291.66,10782.85 5292.04,10782.55 5292.39,10782.21 5292.77,10781.77"/>
    </edge>
    <edge id=":1360087488_0" function="internal">
        <lane id=":1360087488_0_0" index="0" allow="pedestrian" speed="13.89" length="8.16" width="2.00" shape="4802.16,10884.41 4799.78,10884.08 4798.19,10883.46 4796.61,10882.83 4794.22,10882.50"/>
        <lane id=":1360087488_0_1" index="1" allow="bicycle" speed="13.89" length="8.16" width="2.00" shape="4802.22,10882.41 4799.83,10882.08 4798.24,10881.46 4796.66,10880.83 4794.27,10880.51"/>
        <lane id=":1360087488_0_2" index="2" disallow="pedestrian" speed="13.89" length="8.16" shape="4802.28,10880.06 4799.88,10879.70 4798.31,10878.98 4796.74,10878.27 4794.34,10877.91"/>
        <lane id=":1360087488_0_3" index="3" disallow="pedestrian" speed="13.89" length="8.16" shape="4802.35,10877.36 4799.97,10877.42 4798.34,10877.63 4796.72,10877.85 4794.34,10877.91"/>
        <lane id=":1360087488_0_4" index="4" disallow="pedestrian" speed="13.89" length="8.16" shape="4802.42,10874.67 4794.42,10874.71"/>
    </edge>
    <edge id=":1360087488_5" function="internal">
        <lane id=":1360087488_5_0" index="0" allow="pedestrian" speed="13.89" length="8.01" width="2.00" shape="4794.70,10863.71 4802.71,10863.92"/>
        <lane id=":1360087488_5_1" index="1" allow="bicycle" speed="13.89" length="8.01" width="2.00" shape="4794.65,10865.71 4802.65,10865.92"/>
        <lane id=":1360087488_5_2" index="2" disallow="pedestrian" speed="13.89" length="8.01" shape="4794.58,10868.31 4802.59,10868.52"/>
        <lane id=":1360087488_5_3" index="3" disallow="pedestrian" speed="13.89" length="8.01" shape="4794.50,10871.51 4802.50,10871.72"/>
    </edge>
    <edge id=":1360087488_w0" function="walkingarea">
        <lane id=":1360087488_w0_0" index="0" allow="pedestrian" speed="1.00" length="8.17" width="2.00" shape="4794.25,10881.51 4794.20,10883.50 4802.14,10885.41 4802.19,10883.41 4800.47,10883.24 4799.22,10882.89 4798.22,10882.46 4797.21,10882.02 4795.97,10881.68"/>
    </edge>
    <edge id=":1360087488_w1" function="walkingarea">
        <lane id=":1360087488_w1_0" index="0" allow="pedestrian" speed="1.00" length="8.01" width="2.00" shape="4802.68,10864.92 4802.73,10862.92 4794.73,10862.71 4794.68,10864.71"/>
    </edge>
    <edge id=":1360087491_0" function="internal">
        <lane id=":1360087491_0_0" index="0" allow="pedestrian" speed="7.27" length="5.99" width="2.00" shape="4927.94,10887.17 4927.10,10886.53 4926.45,10886.17 4925.72,10886.02 4924.67,10885.96"/>
        <lane id=":1360087491_0_1" index="1" allow="bicycle" speed="8.45" length="5.99" width="2.00" shape="4929.20,10885.62 4928.05,10884.74 4927.16,10884.25 4926.17,10884.04 4924.72,10883.96"/>
        <lane id=":1360087491_0_2" index="2" disallow="pedestrian" speed="9.86" length="5.99" shape="4930.84,10883.60 4929.29,10882.41 4928.09,10881.75 4926.75,10881.46 4924.79,10881.36"/>
        <lane id=":1360087491_0_3" index="3" disallow="pedestrian" speed="11.26" length="5.99" shape="4932.86,10881.12 4930.82,10879.54 4929.23,10878.68 4927.46,10878.30 4924.88,10878.16"/>
    </edge>
    <edge id=":1360087491_4" function="internal">
        <lane id=":1360087491_4_0" index="0" allow="pedestrian" speed="13.89" length="6.44" width="2.00" shape="4925.09,10870.37 4926.84,10870.45 4928.05,10870.52 4929.25,10870.45 4930.97,10870.15"/>
        <lane id=":1360087491_4_1" index="1" allow="bicycle" speed="13.89" length="6.44" width="2.00" shape="4925.03,10872.37 4926.93,10872.45 4928.24,10872.51 4929.53,10872.43 4931.39,10872.10"/>
        <lane id=":1360087491_4_2" index="2" disallow="pedestrian" speed="13.89" length="6.44" shape="4924.96,10874.97 4927.04,10875.06 4928.48,10875.11 4929.89,10875.01 4931.93,10874.65"/>
    </edge>
    <edge id=":1360087491_c0" function="crossing" crossingEdges="gneE546 gneE545.112">
        <lane id=":1360087491_c0_0" index="0" allow="pedestrian" speed="1.00" length="13.60" width="4.00" shape="4926.70,10885.02 4927.06,10871.42"/>
    </edge>
    <edge id=":1360087491_w0" function="walkingarea">
        <lane id=":1360087491_w0_0" index="0" allow="pedestrian" speed="1.00" length="2.74" width="4.00" shape="4924.70,10884.96 4924.64,10886.96 4927.31,10887.95 4928.57,10886.40 4927.87,10885.84 4927.31,10885.46 4926.81,10885.21 4926.26,10885.07 4925.59,10885.00"/>
    </edge>
    <edge id=":1360087491_w1" function="walkingarea">
        <lane id=":1360087491_w1_0" index="0" allow="pedestrian" speed="1.00" length="4.08" width="4.00" shape="4931.18,10871.12 4930.77,10869.17 4925.11,10869.37 4925.06,10871.37 4926.37,10871.42 4927.34,10871.48 4928.15,10871.52 4928.94,10871.49 4929.90,10871.37"/>
    </edge>
    <edge id=":1422005419_0" function="internal">
        <lane id=":1422005419_0_0" index="0" allow="pedestrian" speed="13.89" length="9.29" width="3.00" shape="5672.84,8725.61 5671.81,8723.12 5669.95,8721.88 5668.10,8720.63 5667.07,8718.14"/>
        <lane id=":1422005419_0_1" index="1" allow="bicycle" speed="13.89" length="9.29" width="3.00" shape="5675.93,8725.30 5674.87,8722.81 5672.99,8721.57 5671.10,8720.34 5670.05,8717.84"/>
        <lane id=":1422005419_0_2" index="2" disallow="pedestrian" speed="13.89" length="9.29" width="2.80" shape="5679.11,8724.98 5678.01,8722.47 5676.02,8721.27 5674.04,8720.06 5672.94,8717.55"/>
        <lane id=":1422005419_0_3" index="3" disallow="pedestrian" speed="13.89" length="9.29" width="2.80" shape="5679.11,8724.98 5678.46,8722.60 5677.42,8721.13 5676.37,8719.66 5675.72,8717.28"/>
        <lane id=":1422005419_0_4" index="4" disallow="pedestrian" speed="13.89" length="9.29" width="2.80" shape="5679.11,8724.98 5678.51,8717.00"/>
    </edge>
    <edge id=":1422005419_5" function="internal">
        <lane id=":1422005419_5_0" index="0" allow="pedestrian" speed="13.89" length="7.99" width="3.00" shape="5687.76,8716.08 5688.56,8724.02"/>
        <lane id=":1422005419_5_1" index="1" allow="bicycle" speed="13.89" length="7.99" shape="5684.68,8716.38 5685.48,8724.33"/>
        <lane id=":1422005419_5_2" index="2" disallow="pedestrian" speed="13.89" length="7.99" shape="5681.50,8716.70 5682.30,8724.66"/>
    </edge>
    <edge id=":1422005419_w0" function="walkingarea">
        <lane id=":1422005419_w0_0" index="0" allow="pedestrian" speed="1.00" length="9.45" width="3.00" shape="5668.56,8717.99 5665.57,8718.29 5671.35,8725.77 5674.34,8725.46 5673.78,8723.60 5672.73,8722.48 5671.44,8721.73 5670.16,8720.97 5669.12,8719.85"/>
    </edge>
    <edge id=":1422005419_w1" function="walkingarea">
        <lane id=":1422005419_w1_0" index="0" allow="pedestrian" speed="1.00" length="7.98" width="3.00" shape="5687.07,8724.17 5690.06,8723.87 5689.26,8715.93 5686.27,8716.23"/>
    </edge>
    <edge id=":1732795518_w0" function="walkingarea">
        <lane id=":1732795518_w0_0" index="0" allow="pedestrian" speed="1.00" length="30.40" width="2.00" shape="6072.20,9466.48 6072.17,9468.48 6072.61,9436.08 6072.59,9438.08"/>
    </edge>
    <edge id=":1805216426_0" function="internal">